<?xml version="1.0" encoding="UTF-8"?>

<!-- generated on 11/21/18 08:48:51 by Eclipse SUMO netedit Version v1_0_0+0273-790abe1ce9
<configuration xmlns:xsi="http://www.w3.org/2001/XMLSchema-instance" xsi:noNamespaceSchemaLocation="http://sumo.dlr.de/xsd/netconvertConfiguration.xsd">

    <input>
        <sumo-net-file value="maps/map.net.xml"/>
    </input>

    <output>
        <output-file value="maps/map.net.xml"/>
        <output.street-names value="true"/>
    </output>

    <processing>
        <offset.disable-normalization value="true"/>
        <lefthand value="false"/>
    </processing>

    <junctions>
        <no-turnarounds value="true"/>
        <junctions.corner-detail value="0"/>
        <junctions.limit-turn-speed value="-1"/>
        <rectangular-lane-cut value="false"/>
    </junctions>

    <pedestrian>
        <walkingareas value="false"/>
    </pedestrian>

    <visualisation>
        <registry-viewport value="true"/>
    </visualisation>

</configuration>
-->

<net version="1.0" xmlns:xsi="http://www.w3.org/2001/XMLSchema-instance" xsi:noNamespaceSchemaLocation="http://sumo.dlr.de/xsd/net_file.xsd">

    <location netOffset="-680627.26,-1189444.46" convBoundary="0.00,-0.63,1704.12,2569.61" origBoundary="106.651991,10.755565,106.672100,10.782918" projParameter="+proj=utm +zone=48 +ellps=WGS84 +datum=WGS84 +units=m +no_defs"/>

    <type id="highway.bridleway" priority="1" numLanes="1" speed="2.78" allow="pedestrian" oneway="1" width="2.00"/>
    <type id="highway.bus_guideway" priority="1" numLanes="1" speed="8.33" allow="bus" oneway="1"/>
    <type id="highway.cycleway" priority="1" numLanes="1" speed="5.56" allow="bicycle" oneway="0" width="1.00"/>
    <type id="highway.footway" priority="1" numLanes="1" speed="2.78" allow="pedestrian" oneway="1" width="2.00"/>
    <type id="highway.ford" priority="1" numLanes="1" speed="2.78" allow="army" oneway="0"/>
    <type id="highway.living_street" priority="3" numLanes="1" speed="2.78" disallow="tram rail_urban rail rail_electric ship" oneway="0"/>
    <type id="highway.motorway" priority="13" numLanes="2" speed="44.44" allow="private emergency authority army vip passenger hov taxi bus coach delivery truck trailer motorcycle evehicle custom1 custom2" oneway="1"/>
    <type id="highway.motorway_link" priority="12" numLanes="1" speed="22.22" allow="private emergency authority army vip passenger hov taxi bus coach delivery truck trailer motorcycle evehicle custom1 custom2" oneway="1"/>
    <type id="highway.path" priority="1" numLanes="1" speed="2.78" allow="bicycle pedestrian" oneway="1" width="2.00"/>
    <type id="highway.pedestrian" priority="1" numLanes="1" speed="2.78" allow="pedestrian" oneway="1" width="2.00"/>
    <type id="highway.primary" priority="9" numLanes="2" speed="27.78" disallow="tram rail_urban rail rail_electric ship" oneway="0"/>
    <type id="highway.primary_link" priority="8" numLanes="1" speed="22.22" disallow="tram rail_urban rail rail_electric ship" oneway="0"/>
    <type id="highway.raceway" priority="14" numLanes="2" speed="83.33" allow="vip" oneway="0"/>
    <type id="highway.residential" priority="4" numLanes="1" speed="13.89" disallow="tram rail_urban rail rail_electric ship" oneway="0"/>
    <type id="highway.secondary" priority="7" numLanes="2" speed="27.78" disallow="tram rail_urban rail rail_electric ship" oneway="0"/>
    <type id="highway.secondary_link" priority="6" numLanes="1" speed="22.22" disallow="tram rail_urban rail rail_electric ship" oneway="0"/>
    <type id="highway.service" priority="2" numLanes="1" speed="5.56" allow="delivery bicycle pedestrian" oneway="0"/>
    <type id="highway.services" priority="1" numLanes="1" speed="8.33" disallow="tram rail_urban rail rail_electric ship" oneway="0"/>
    <type id="highway.stairs" priority="1" numLanes="1" speed="1.39" allow="pedestrian" oneway="1" width="2.00"/>
    <type id="highway.step" priority="1" numLanes="1" speed="1.39" allow="pedestrian" oneway="1" width="2.00"/>
    <type id="highway.steps" priority="1" numLanes="1" speed="1.39" allow="pedestrian" oneway="1" width="2.00"/>
    <type id="highway.tertiary" priority="6" numLanes="1" speed="22.22" disallow="tram rail_urban rail rail_electric ship" oneway="0"/>
    <type id="highway.tertiary_link" priority="5" numLanes="1" speed="22.22" disallow="tram rail_urban rail rail_electric ship" oneway="0"/>
    <type id="highway.track" priority="1" numLanes="1" speed="5.56" disallow="tram rail_urban rail rail_electric ship" oneway="0"/>
    <type id="highway.trunk" priority="11" numLanes="2" speed="27.78" disallow="tram rail_urban rail rail_electric bicycle pedestrian ship" oneway="0"/>
    <type id="highway.trunk_link" priority="10" numLanes="1" speed="22.22" disallow="tram rail_urban rail rail_electric bicycle pedestrian ship" oneway="0"/>
    <type id="highway.unclassified" priority="5" numLanes="1" speed="13.89" disallow="tram rail_urban rail rail_electric ship" oneway="0"/>
    <type id="highway.unsurfaced" priority="1" numLanes="1" speed="8.33" disallow="tram rail_urban rail rail_electric ship" oneway="0"/>
    <type id="railway.light_rail" priority="15" numLanes="1" speed="27.78" allow="rail_urban" oneway="1"/>
    <type id="railway.preserved" priority="15" numLanes="1" speed="27.78" allow="rail" oneway="1"/>
    <type id="railway.rail" priority="15" numLanes="1" speed="83.33" allow="rail rail_electric" oneway="1"/>
    <type id="railway.subway" priority="15" numLanes="1" speed="27.78" allow="rail_urban" oneway="1"/>
    <type id="railway.tram" priority="15" numLanes="1" speed="13.89" allow="tram" oneway="1"/>

    <edge id=":1997154438_0" function="internal">
        <lane id=":1997154438_0_0" index="0" allow="delivery bicycle pedestrian" speed="5.56" length="4.67" shape="1166.15,767.89 1167.16,766.86 1168.02,766.62 1168.73,767.16 1169.29,768.49"/>
    </edge>
    <edge id=":1997154605_0" function="internal">
        <lane id=":1997154605_0_0" index="0" disallow="tram rail_urban rail rail_electric ship" speed="13.89" length="8.20" shape="1237.55,985.82 1235.33,986.63 1233.61,987.76 1232.40,989.20 1231.70,990.97"/>
    </edge>
    <edge id=":1997154605_1" function="internal">
        <lane id=":1997154605_1_0" index="0" disallow="tram rail_urban rail rail_electric ship" speed="13.89" length="10.43" shape="1237.55,985.82 1234.60,986.43 1232.45,986.39 1230.34,985.78 1227.48,984.66"/>
    </edge>
    <edge id=":1997154605_2" function="internal">
        <lane id=":1997154605_2_0" index="0" disallow="tram rail_urban rail rail_electric ship" speed="13.89" length="6.15" shape="1228.59,990.24 1228.93,988.12 1228.86,986.48 1228.38,985.33 1227.48,984.66"/>
    </edge>
    <edge id=":1997154605_3" function="internal">
        <lane id=":1997154605_3_0" index="0" disallow="tram rail_urban rail rail_electric ship" speed="13.89" length="4.67" shape="1228.59,990.24 1229.64,989.25 1230.51,989.05 1231.20,989.62 1231.70,990.97"/>
    </edge>
    <edge id=":2302073730_0" function="internal">
        <lane id=":2302073730_0_0" index="0" allow="delivery bicycle pedestrian" speed="5.56" length="7.93" shape="1051.35,1305.97 1050.48,1307.98 1049.18,1309.19 1047.45,1309.63 1045.29,1309.28"/>
    </edge>
    <edge id=":2302073730_1" function="internal">
        <lane id=":2302073730_1_0" index="0" allow="delivery bicycle pedestrian" speed="5.56" length="4.67" shape="1051.35,1305.97 1050.26,1306.92 1049.39,1307.09 1048.72,1306.49 1048.27,1305.12"/>
    </edge>
    <edge id=":2302073730_2" function="internal">
        <lane id=":2302073730_2_0" index="0" allow="delivery bicycle pedestrian" speed="5.56" length="2.64" shape="1046.25,1306.22 1046.97,1306.34 1047.54,1306.20 1047.98,1305.79 1048.27,1305.12"/>
    </edge>
    <edge id=":2302073730_3" function="internal">
        <lane id=":2302073730_3_0" index="0" allow="delivery bicycle pedestrian" speed="5.56" length="4.67" shape="1046.25,1306.22 1047.15,1307.35 1047.30,1308.23 1046.68,1308.87 1045.29,1309.28"/>
    </edge>
    <edge id=":2302073739_0" function="internal">
        <lane id=":2302073739_0_0" index="0" allow="delivery bicycle pedestrian" speed="5.56" length="5.47" shape="918.60,1422.85 918.15,1421.74 917.33,1420.81 916.14,1420.08 914.60,1419.54"/>
    </edge>
    <edge id=":2302073739_1" function="internal">
        <lane id=":2302073739_1_0" index="0" allow="delivery bicycle pedestrian" speed="5.56" length="8.75" shape="918.60,1422.85 918.13,1420.33 918.09,1418.55 918.46,1416.78 919.22,1414.30"/>
    </edge>
    <edge id=":2302073739_2" function="internal">
        <lane id=":2302073739_2_0" index="0" allow="delivery bicycle pedestrian" speed="5.56" length="4.67" shape="918.60,1422.85 919.12,1421.51 919.81,1420.95 920.68,1421.16 921.72,1422.16"/>
    </edge>
    <edge id=":2302073739_3" function="internal">
        <lane id=":2302073739_3_0" index="0" allow="delivery bicycle pedestrian" speed="5.56" length="7.08" shape="922.28,1415.24 921.66,1417.25 921.34,1418.68 921.35,1420.12 921.72,1422.16"/>
    </edge>
    <edge id=":2302073739_4" function="internal">
        <lane id=":2302073739_4_0" index="0" allow="delivery bicycle pedestrian" speed="5.56" length="9.94" shape="922.28,1415.24 921.13,1417.69 919.46,1419.23 917.29,1419.84 914.60,1419.54"/>
    </edge>
    <edge id=":2302073739_5" function="internal">
        <lane id=":2302073739_5_0" index="0" allow="delivery bicycle pedestrian" speed="5.56" length="4.67" shape="922.28,1415.24 921.16,1416.15 920.28,1416.30 919.63,1415.68 919.22,1414.30"/>
    </edge>
    <edge id=":2302073739_6" function="internal">
        <lane id=":2302073739_6_0" index="0" allow="delivery bicycle pedestrian" speed="5.56" length="4.95" shape="915.40,1416.44 916.74,1416.59 917.82,1416.28 918.65,1415.52 919.22,1414.30"/>
    </edge>
    <edge id=":2302073739_7" function="internal">
        <lane id=":2302073739_7_0" index="0" allow="delivery bicycle pedestrian" speed="5.56" length="9.00" shape="915.40,1416.44 917.80,1417.32 919.66,1418.56 920.97,1420.18 921.72,1422.16"/>
    </edge>
    <edge id=":2302073739_8" function="internal">
        <lane id=":2302073739_8_0" index="0" allow="delivery bicycle pedestrian" speed="5.56" length="4.67" shape="915.40,1416.44 916.36,1417.51 916.55,1418.39 915.96,1419.06 914.60,1419.54"/>
    </edge>
    <edge id=":2302073744_0" function="internal">
        <lane id=":2302073744_0_0" index="0" allow="delivery bicycle pedestrian" speed="5.56" length="5.06" shape="965.33,1284.27 963.97,1284.05 962.87,1284.33 962.03,1285.11 961.44,1286.38"/>
    </edge>
    <edge id=":2302073744_1" function="internal">
        <lane id=":2302073744_1_0" index="0" allow="delivery bicycle pedestrian" speed="5.56" length="9.46" shape="965.33,1284.27 956.25,1281.62"/>
    </edge>
    <edge id=":2302073744_2" function="internal">
        <lane id=":2302073744_2_0" index="0" allow="delivery bicycle pedestrian" speed="5.56" length="2.06" shape="965.33,1284.27 963.47,1283.38"/>
    </edge>
    <edge id=":2302073744_3" function="internal">
        <lane id=":2302073744_3_0" index="0" allow="delivery bicycle pedestrian" speed="5.56" length="4.67" shape="965.33,1284.27 964.42,1283.15 964.28,1282.27 964.90,1281.62 966.29,1281.22"/>
    </edge>
    <edge id=":2302073744_16" function="internal">
        <lane id=":2302073744_16_0" index="0" speed="5.56" length="8.19" shape="963.47,1283.38 962.82,1283.07 961.24,1281.35 960.60,1279.10 960.90,1276.32"/>
    </edge>
    <edge id=":2302073744_4" function="internal">
        <lane id=":2302073744_4_0" index="0" allow="delivery bicycle pedestrian" speed="5.56" length="5.29" shape="964.01,1277.11 963.85,1278.54 964.18,1279.71 964.99,1280.60 966.29,1281.22"/>
    </edge>
    <edge id=":2302073744_5" function="internal">
        <lane id=":2302073744_5_0" index="0" allow="delivery bicycle pedestrian" speed="5.56" length="9.62" shape="964.01,1277.11 961.44,1286.38"/>
    </edge>
    <edge id=":2302073744_6" function="internal">
        <lane id=":2302073744_6_0" index="0" allow="delivery bicycle pedestrian" speed="5.56" length="10.27" shape="964.01,1277.11 962.93,1279.71 961.29,1281.33 959.06,1281.97 956.25,1281.62"/>
    </edge>
    <edge id=":2302073744_7" function="internal">
        <lane id=":2302073744_7_0" index="0" allow="delivery bicycle pedestrian" speed="5.56" length="4.67" shape="964.01,1277.11 962.94,1278.07 962.06,1278.27 961.39,1277.68 960.90,1276.32"/>
    </edge>
    <edge id=":2302073744_8" function="internal">
        <lane id=":2302073744_8_0" index="0" allow="delivery bicycle pedestrian" speed="5.56" length="5.04" shape="957.09,1278.53 958.47,1278.70 959.57,1278.39 960.38,1277.60 960.90,1276.32"/>
    </edge>
    <edge id=":2302073744_9" function="internal">
        <lane id=":2302073744_9_0" index="0" allow="delivery bicycle pedestrian" speed="5.56" length="9.58" shape="957.09,1278.53 966.29,1281.22"/>
    </edge>
    <edge id=":2302073744_10" function="internal">
        <lane id=":2302073744_10_0" index="0" allow="delivery bicycle pedestrian" speed="5.56" length="2.10" shape="957.09,1278.53 959.01,1279.36"/>
    </edge>
    <edge id=":2302073744_11" function="internal">
        <lane id=":2302073744_11_0" index="0" allow="delivery bicycle pedestrian" speed="5.56" length="4.67" shape="957.09,1278.53 958.04,1279.62 958.21,1280.49 957.62,1281.16 956.25,1281.62"/>
    </edge>
    <edge id=":2302073744_17" function="internal">
        <lane id=":2302073744_17_0" index="0" speed="5.56" length="8.20" shape="959.01,1279.36 959.69,1279.65 961.28,1281.34 961.86,1283.58 961.44,1286.38"/>
    </edge>
    <edge id=":2302073744_12" function="internal">
        <lane id=":2302073744_12_0" index="0" allow="delivery bicycle pedestrian" speed="5.56" length="5.03" shape="958.38,1285.45 958.58,1284.08 958.30,1282.99 957.52,1282.17 956.25,1281.62"/>
    </edge>
    <edge id=":2302073744_13" function="internal">
        <lane id=":2302073744_13_0" index="0" allow="delivery bicycle pedestrian" speed="5.56" length="9.47" shape="958.38,1285.45 960.90,1276.32"/>
    </edge>
    <edge id=":2302073744_14" function="internal">
        <lane id=":2302073744_14_0" index="0" allow="delivery bicycle pedestrian" speed="5.56" length="10.26" shape="958.38,1285.45 959.56,1282.89 961.28,1281.33 963.52,1280.77 966.29,1281.22"/>
    </edge>
    <edge id=":2302073744_15" function="internal">
        <lane id=":2302073744_15_0" index="0" allow="delivery bicycle pedestrian" speed="5.56" length="4.67" shape="958.38,1285.45 959.49,1284.53 960.37,1284.38 961.02,1285.00 961.44,1286.38"/>
    </edge>
    <edge id=":2302073746_0" function="internal">
        <lane id=":2302073746_0_0" index="0" disallow="tram rail_urban rail rail_electric ship" speed="27.78" length="9.40" width="4.80" shape="493.15,2316.12 490.60,2325.16"/>
        <lane id=":2302073746_0_1" index="1" disallow="tram rail_urban rail rail_electric ship" speed="27.78" length="9.40" width="4.80" shape="488.54,2314.81 485.98,2323.86"/>
    </edge>
    <edge id=":2302073746_2" function="internal">
        <lane id=":2302073746_2_0" index="0" disallow="tram rail_urban rail rail_electric ship" speed="25.00" length="7.42" shape="488.54,2314.81 487.63,2317.43 486.62,2319.20 485.52,2320.11 484.33,2320.17"/>
    </edge>
    <edge id=":2302073746_3" function="internal">
        <lane id=":2302073746_3_0" index="0" disallow="tram rail_urban rail rail_electric ship" speed="25.00" length="7.39" width="4.80" shape="485.24,2317.10 486.20,2317.79 486.65,2319.15 486.57,2321.17 485.98,2323.86"/>
    </edge>
    <edge id=":2302073746_4" function="internal">
        <lane id=":2302073746_4_0" index="0" disallow="tram rail_urban rail rail_electric ship" speed="22.22" length="4.67" shape="485.24,2317.10 486.16,2318.21 486.32,2319.09 485.71,2319.74 484.33,2320.17"/>
    </edge>
    <edge id=":2433653225_0" function="internal">
        <lane id=":2433653225_0_0" index="0" disallow="tram rail_urban rail rail_electric ship" speed="20.84" length="8.95" shape="1314.61,1164.94 1315.44,1162.64 1315.34,1160.61 1314.31,1158.87 1312.35,1157.40"/>
    </edge>
    <edge id=":2433653225_1" function="internal">
        <lane id=":2433653225_1_0" index="0" disallow="tram rail_urban rail rail_electric ship" speed="20.84" length="11.62" shape="1314.61,1164.94 1316.09,1161.40 1316.47,1158.50 1315.73,1156.23 1313.88,1154.60"/>
    </edge>
    <edge id=":2433653225_2" function="internal">
        <lane id=":2433653225_2_0" index="0" disallow="tram rail_urban rail rail_electric ship" speed="13.89" length="4.67" shape="1314.61,1164.94 1315.88,1164.25 1316.77,1164.28 1317.29,1165.00 1317.43,1166.44"/>
    </edge>
    <edge id=":2433653226_0" function="internal">
        <lane id=":2433653226_0_0" index="0" allow="delivery bicycle pedestrian" speed="16.67" length="5.05" shape="1183.05,1086.67 1181.74,1086.19 1180.61,1086.24 1179.65,1086.85 1178.86,1087.99"/>
    </edge>
    <edge id=":2433653226_1" function="internal">
        <lane id=":2433653226_1_0" index="0" disallow="tram rail_urban rail rail_electric ship" speed="27.78" length="9.72" shape="1183.05,1086.67 1174.52,1082.01"/>
        <lane id=":2433653226_1_1" index="1" disallow="tram rail_urban rail rail_electric ship" speed="27.78" length="9.72" shape="1184.58,1083.87 1176.05,1079.20"/>
    </edge>
    <edge id=":2433653226_3" function="internal">
        <lane id=":2433653226_3_0" index="0" allow="delivery bicycle pedestrian" speed="16.67" length="8.13" shape="1184.58,1083.87 1182.16,1082.32 1180.63,1080.80 1179.98,1079.31 1180.23,1077.85"/>
    </edge>
    <edge id=":2433653226_4" function="internal">
        <lane id=":2433653226_4_0" index="0" allow="delivery bicycle pedestrian" speed="5.56" length="9.74" shape="1183.12,1079.23 1178.86,1087.99"/>
    </edge>
    <edge id=":2433653226_5" function="internal">
        <lane id=":2433653226_5_0" index="0" disallow="tram rail_urban rail rail_electric ship" speed="16.67" length="7.92" shape="1183.12,1079.23 1182.13,1080.37 1180.62,1080.74 1178.60,1080.35 1176.05,1079.20"/>
    </edge>
    <edge id=":2433653226_6" function="internal">
        <lane id=":2433653226_6_0" index="0" allow="delivery bicycle pedestrian" speed="5.56" length="4.67" shape="1183.12,1079.23 1181.88,1079.97 1180.98,1079.98 1180.43,1079.28 1180.23,1077.85"/>
    </edge>
    <edge id=":2433653226_7" function="internal">
        <lane id=":2433653226_7_0" index="0" disallow="tram rail_urban rail rail_electric ship" speed="16.67" length="5.43" shape="1175.99,1086.58 1176.45,1085.18 1176.36,1083.96 1175.71,1082.90 1174.52,1082.01"/>
    </edge>
    <edge id=":2433653226_8" function="internal">
        <lane id=":2433653226_8_0" index="0" allow="delivery bicycle pedestrian" speed="5.56" length="9.70" shape="1175.99,1086.58 1180.23,1077.85"/>
    </edge>
    <edge id=":2433653226_9" function="internal">
        <lane id=":2433653226_9_0" index="0" allow="delivery bicycle pedestrian" speed="5.56" length="4.67" shape="1175.99,1086.58 1177.24,1085.86 1178.14,1085.85 1178.68,1086.56 1178.86,1087.99"/>
    </edge>
    <edge id=":2433653232_0" function="internal">
        <lane id=":2433653232_0_0" index="0" allow="delivery bicycle pedestrian" speed="16.67" length="5.29" shape="1042.88,1009.98 1041.48,1009.46 1040.33,1009.56 1039.46,1010.30 1038.85,1011.67"/>
    </edge>
    <edge id=":2433653232_1" function="internal">
        <lane id=":2433653232_1_0" index="0" disallow="tram rail_urban rail rail_electric ship" speed="27.78" length="9.57" shape="1042.88,1009.98 1034.49,1005.39"/>
        <lane id=":2433653232_1_1" index="1" disallow="tram rail_urban rail rail_electric ship" speed="27.78" length="9.57" shape="1044.42,1007.18 1036.02,1002.58"/>
    </edge>
    <edge id=":2433653232_3" function="internal">
        <lane id=":2433653232_3_0" index="0" disallow="tram rail_urban rail rail_electric ship" speed="16.67" length="6.03" shape="1035.77,1010.80 1036.12,1008.94 1036.03,1007.41 1035.48,1006.23 1034.49,1005.39"/>
    </edge>
    <edge id=":2433653232_4" function="internal">
        <lane id=":2433653232_4_0" index="0" allow="delivery bicycle pedestrian" speed="5.56" length="4.67" shape="1035.77,1010.80 1036.87,1009.87 1037.74,1009.70 1038.41,1010.30 1038.85,1011.67"/>
    </edge>
    <edge id=":2434647839_0" function="internal">
        <lane id=":2434647839_0_0" index="0" disallow="tram rail_urban rail rail_electric ship" speed="25.00" length="7.93" shape="164.08,1299.34 163.12,1298.16 162.95,1296.59 163.57,1294.62 164.99,1292.25"/>
    </edge>
    <edge id=":2434647839_1" function="internal">
        <lane id=":2434647839_1_0" index="0" disallow="tram rail_urban rail rail_electric ship" speed="22.22" length="4.67" shape="164.08,1299.34 163.57,1297.99 163.71,1297.11 164.51,1296.69 165.95,1296.74"/>
    </edge>
    <edge id=":2434647839_2" function="internal">
        <lane id=":2434647839_2_0" index="0" disallow="tram rail_urban rail rail_electric ship" speed="27.78" length="9.62" shape="157.04,1298.54 162.38,1290.40"/>
        <lane id=":2434647839_2_1" index="1" disallow="tram rail_urban rail rail_electric ship" speed="27.78" length="9.62" shape="159.78,1300.21 164.99,1292.25"/>
    </edge>
    <edge id=":2434647839_4" function="internal">
        <lane id=":2434647839_4_0" index="0" disallow="tram rail_urban rail rail_electric ship" speed="25.00" length="7.98" shape="159.78,1300.21 161.42,1297.93 162.99,1296.59 164.50,1296.20 165.95,1296.74"/>
    </edge>
    <edge id=":2434647886_0" function="internal">
        <lane id=":2434647886_0_0" index="0" disallow="tram rail_urban rail rail_electric ship" speed="25.00" length="7.80" shape="338.82,1051.00 337.91,1049.89 337.79,1048.36 338.45,1046.41 339.89,1044.05"/>
    </edge>
    <edge id=":2434647886_1" function="internal">
        <lane id=":2434647886_1_0" index="0" disallow="tram rail_urban rail rail_electric ship" speed="22.22" length="4.67" shape="338.82,1051.00 338.29,1049.66 338.42,1048.77 339.20,1048.34 340.64,1048.37"/>
    </edge>
    <edge id=":2434647886_2" function="internal">
        <lane id=":2434647886_2_0" index="0" disallow="tram rail_urban rail rail_electric ship" speed="27.78" length="9.40" shape="331.82,1049.84 337.29,1042.19"/>
        <lane id=":2434647886_2_1" index="1" disallow="tram rail_urban rail rail_electric ship" speed="27.78" length="9.40" shape="334.43,1051.70 339.89,1044.05"/>
    </edge>
    <edge id=":2434647886_4" function="internal">
        <lane id=":2434647886_4_0" index="0" disallow="tram rail_urban rail rail_electric ship" speed="25.00" length="7.78" shape="334.43,1051.70 336.18,1049.57 337.81,1048.31 339.29,1047.91 340.64,1048.37"/>
    </edge>
    <edge id=":2434647895_0" function="internal">
        <lane id=":2434647895_0_0" index="0" disallow="tram rail_urban rail rail_electric ship" speed="22.22" length="14.44" shape="284.30,1131.64 272.64,1123.11"/>
    </edge>
    <edge id=":2434647895_1" function="internal">
        <lane id=":2434647895_1_0" index="0" disallow="tram rail_urban rail rail_electric ship" speed="25.00" length="11.87" shape="284.30,1131.64 282.64,1129.69 282.18,1127.28 282.93,1124.40 284.89,1121.05"/>
    </edge>
    <edge id=":2434647895_2" function="internal">
        <lane id=":2434647895_2_0" index="0" disallow="tram rail_urban rail rail_electric ship" speed="22.22" length="4.67" shape="284.30,1131.64 283.82,1130.27 283.99,1129.39 284.79,1129.00 286.23,1129.08"/>
    </edge>
    <edge id=":2434647895_3" function="internal">
        <lane id=":2434647895_3_0" index="0" disallow="tram rail_urban rail rail_electric ship" speed="25.00" length="9.00" shape="274.49,1120.50 276.69,1121.63 278.72,1121.78 280.58,1120.97 282.29,1119.19"/>
    </edge>
    <edge id=":2434647895_4" function="internal">
        <lane id=":2434647895_4_0" index="0" disallow="tram rail_urban rail rail_electric ship" speed="22.22" length="14.54" shape="274.49,1120.50 286.23,1129.08"/>
    </edge>
    <edge id=":2434647895_5" function="internal">
        <lane id=":2434647895_5_0" index="0" disallow="tram rail_urban rail rail_electric ship" speed="22.22" length="4.67" shape="274.49,1120.50 275.01,1121.85 274.87,1122.73 274.09,1123.15 272.64,1123.11"/>
    </edge>
    <edge id=":2434647895_6" function="internal">
        <lane id=":2434647895_6_0" index="0" disallow="tram rail_urban rail rail_electric ship" speed="25.00" length="9.16" shape="273.94,1131.06 275.08,1128.79 275.25,1126.71 274.44,1124.82 272.64,1123.11"/>
    </edge>
    <edge id=":2434647895_7" function="internal">
        <lane id=":2434647895_7_0" index="0" disallow="tram rail_urban rail rail_electric ship" speed="27.78" length="14.49" shape="273.94,1131.06 282.29,1119.19"/>
        <lane id=":2434647895_7_1" index="1" disallow="tram rail_urban rail rail_electric ship" speed="27.78" length="14.49" shape="276.57,1132.88 284.89,1121.05"/>
    </edge>
    <edge id=":2434647895_9" function="internal">
        <lane id=":2434647895_9_0" index="0" disallow="tram rail_urban rail rail_electric ship" speed="25.00" length="11.78" shape="276.57,1132.88 279.07,1129.91 281.50,1128.29 283.89,1128.01 286.23,1129.08"/>
    </edge>
    <edge id=":2434730477_0" function="internal">
        <lane id=":2434730477_0_0" index="0" allow="delivery bicycle pedestrian" speed="5.56" length="9.40" shape="499.57,973.17 494.12,980.84"/>
    </edge>
    <edge id=":2434730477_1" function="internal">
        <lane id=":2434730477_1_0" index="0" allow="delivery bicycle pedestrian" speed="5.56" length="10.30" shape="499.57,973.17 497.62,975.23 495.49,976.14 493.18,975.91 490.70,974.55"/>
    </edge>
    <edge id=":2434730477_2" function="internal">
        <lane id=":2434730477_2_0" index="0" allow="delivery bicycle pedestrian" speed="5.56" length="4.67" shape="499.57,973.17 498.22,973.69 497.34,973.55 496.92,972.76 496.96,971.32"/>
    </edge>
    <edge id=":2434730477_3" function="internal">
        <lane id=":2434730477_3_0" index="0" allow="delivery bicycle pedestrian" speed="5.56" length="5.03" shape="492.63,971.99 493.84,972.66 494.97,972.77 496.01,972.32 496.96,971.32"/>
    </edge>
    <edge id=":2434730477_4" function="internal">
        <lane id=":2434730477_4_0" index="0" allow="delivery bicycle pedestrian" speed="5.56" length="10.17" shape="492.63,971.99 494.62,973.98 495.54,976.11 495.37,978.40 494.12,980.84"/>
    </edge>
    <edge id=":2434730477_5" function="internal">
        <lane id=":2434730477_5_0" index="0" allow="delivery bicycle pedestrian" speed="5.56" length="4.67" shape="492.63,971.99 493.10,973.35 492.94,974.23 492.14,974.63 490.70,974.55"/>
    </edge>
    <edge id=":2434730477_6" function="internal">
        <lane id=":2434730477_6_0" index="0" allow="delivery bicycle pedestrian" speed="5.56" length="5.11" shape="491.51,978.98 492.13,977.77 492.20,976.63 491.72,975.55 490.70,974.55"/>
    </edge>
    <edge id=":2434730477_7" function="internal">
        <lane id=":2434730477_7_0" index="0" allow="delivery bicycle pedestrian" speed="5.56" length="9.40" shape="491.51,978.98 496.96,971.32"/>
    </edge>
    <edge id=":2434730477_8" function="internal">
        <lane id=":2434730477_8_0" index="0" allow="delivery bicycle pedestrian" speed="5.56" length="4.67" shape="491.51,978.98 492.86,978.47 493.74,978.61 494.17,979.40 494.12,980.84"/>
    </edge>
    <edge id=":2434730478_0" function="internal">
        <lane id=":2434730478_0_0" index="0" disallow="tram rail_urban rail rail_electric ship" speed="16.67" length="5.20" shape="356.53,1046.43 355.19,1045.79 353.99,1045.68 352.91,1046.10 351.96,1047.06"/>
    </edge>
    <edge id=":2434730478_1" function="internal">
        <lane id=":2434730478_1_0" index="0" allow="delivery bicycle pedestrian" speed="5.56" length="4.67" shape="356.53,1046.43 355.96,1045.11 356.06,1044.22 356.83,1043.77 358.28,1043.75"/>
    </edge>
    <edge id=":2434730478_2" function="internal">
        <lane id=":2434730478_2_0" index="0" allow="delivery bicycle pedestrian" speed="16.67" length="5.06" shape="357.48,1039.44 356.83,1040.68 356.74,1041.81 357.23,1042.83 358.28,1043.75"/>
    </edge>
    <edge id=":2434730478_3" function="internal">
        <lane id=":2434730478_3_0" index="0" disallow="tram rail_urban rail rail_electric ship" speed="27.78" length="9.41" shape="357.48,1039.44 351.96,1047.06"/>
        <lane id=":2434730478_3_1" index="1" disallow="tram rail_urban rail rail_electric ship" speed="27.78" length="9.41" shape="354.88,1037.56 349.37,1045.19"/>
    </edge>
    <edge id=":2434730479_0" function="internal">
        <lane id=":2434730479_0_0" index="0" disallow="tram rail_urban rail rail_electric ship" speed="16.67" length="5.14" shape="474.18,884.54 472.86,883.92 471.67,883.82 470.60,884.25 469.65,885.20"/>
    </edge>
    <edge id=":2434730479_1" function="internal">
        <lane id=":2434730479_1_0" index="0" allow="delivery bicycle pedestrian" speed="5.56" length="4.67" shape="474.18,884.54 473.60,883.22 473.69,882.33 474.45,881.87 475.90,881.84"/>
    </edge>
    <edge id=":2434730479_2" function="internal">
        <lane id=":2434730479_2_0" index="0" allow="delivery bicycle pedestrian" speed="16.67" length="5.02" shape="474.98,877.55 474.39,878.79 474.35,879.92 474.85,880.94 475.90,881.84"/>
    </edge>
    <edge id=":2434730479_3" function="internal">
        <lane id=":2434730479_3_0" index="0" disallow="tram rail_urban rail rail_electric ship" speed="27.78" length="9.25" shape="474.98,877.55 469.65,885.20"/>
        <lane id=":2434730479_3_1" index="1" disallow="tram rail_urban rail rail_electric ship" speed="27.78" length="9.25" shape="472.32,875.78 467.07,883.30"/>
    </edge>
    <edge id=":2495826718_0" function="internal">
        <lane id=":2495826718_0_0" index="0" disallow="tram rail_urban rail rail_electric ship" speed="13.89" length="3.63" shape="117.85,1563.68 117.95,1560.58 118.28,1560.17"/>
    </edge>
    <edge id=":2495826718_1" function="internal">