<?xml version="1.0" encoding="UTF-8"?>

<!-- generated on Tue Sep 19 10:40:41 2017 by SUMO polyconvert Version 0.30.0
<?xml version="1.0" encoding="UTF-8"?>

<configuration xmlns:xsi="http://www.w3.org/2001/XMLSchema-instance" xsi:noNamespaceSchemaLocation="http://sumo.dlr.de/xsd/polyconvertConfiguration.xsd">

    <input>
        <net-file value="map.net.xml"/>
        <osm-files value="map.osm"/>
        <type-file value="typemap.xml"/>
    </input>

    <output>
        <output-file value="map.poly.xml"/>
    </output>

    <processing>
        <poi-layer-offset value="5"/>
    </processing>

</configuration>
-->

<additional xmlns:xsi="http://www.w3.org/2001/XMLSchema-instance" xsi:noNamespaceSchemaLocation="http://sumo.dlr.de/xsd/additional_file.xsd">
	<e1Detector id="lg_detector_1" lane="ltk32_e9_0" pos="16.26" freq="100.00" file="NUL"/>
    <e1Detector id="lg_detector_2" lane="ltk32_e9_1" pos="16.30" freq="100.00" file="NUL"/>
    

    
    <location netOffset="-680627.26,-1189444.46" convBoundary="-95.53,-0.00,2195.98,3031.47" origBoundary="106.651045,10.755565,106.672100,10.782918" projParameter="+proj=utm +zone=48 +ellps=WGS84 +datum=WGS84 +units=m +no_defs"/>
	
    <poly id="231882251" type="leisure" color="207,245,201" fill="1" layer="-2.00" shape="559.51,1520.68 571.14,1524.17 566.27,1540.91 656.87,1566.33 686.71,1466.10 698.70,1429.06 646.87,1413.42 649.40,1404.64 635.58,1400.83 633.16,1409.29 608.94,1401.98 601.39,1423.67 589.98,1420.76 559.51,1520.68"/>
    <poly id="231882251#1" type="sport" color="79,230,125" fill="1" layer="-2.00" shape="559.51,1520.68 571.14,1524.17 566.27,1540.91 656.87,1566.33 686.71,1466.10 698.70,1429.06 646.87,1413.42 649.40,1404.64 635.58,1400.83 633.16,1409.29 608.94,1401.98 601.39,1423.67 589.98,1420.76 559.51,1520.68"/>
    <poly id="237664916" type="amenity" color="237,199,199" fill="1" layer="-1.00" shape="726.71,1662.34 786.61,1717.89 811.90,1652.10 781.67,1637.58 800.37,1588.08 721.07,1560.17 697.59,1634.32 726.71,1662.34"/>
    <poly id="237665212" type="amenity" color="237,199,199" fill="1" layer="-1.00" shape="686.43,1658.45 912.13,1870.08 1040.96,2029.60 1087.58,2093.14 882.58,2281.94 641.30,1991.64 628.95,1930.08 631.93,1919.67 616.75,1909.99 636.58,1837.54 648.26,1795.91 686.43,1658.45"/>
    <poly id="286471178" type="building" color="255,230,230" fill="1" layer="-1.00" shape="248.86,1726.37 247.82,1714.00 264.51,1710.99 265.77,1724.25 248.86,1726.37"/>
    <poly id="286471178#1" type="shop" color="237,199,255" fill="1" layer="-1.00" shape="248.86,1726.37 247.82,1714.00 264.51,1710.99 265.77,1724.25 248.86,1726.37"/>
    <poly id="292878526" type="building" color="255,230,230" fill="1" layer="-1.00" shape="855.42,2002.01 873.45,2012.19 896.81,1971.33 879.53,1961.58 873.95,1971.36 877.22,1973.21 866.25,1992.40 862.21,1990.12 855.42,2002.01"/>
    <poly id="292878527" type="building" color="255,230,230" fill="1" layer="-1.00" shape="816.96,1975.67 835.97,1941.56 869.25,1959.86 850.25,1993.98 816.96,1975.67"/>
    <poly id="292878528" type="building" color="255,230,230" fill="1" layer="-1.00" shape="760.71,2111.87 777.39,2081.42 886.78,2140.57 870.10,2171.02 760.71,2111.87"/>
    <poly id="292878529" type="building" color="255,230,230" fill="1" layer="-1.00" shape="888.96,2157.17 894.95,2146.70 949.17,2177.31 937.48,2192.94 916.08,2172.48 888.96,2157.17"/>
    <poly id="292878530" type="building" color="255,230,230" fill="1" layer="-1.00" shape="871.41,2189.52 877.97,2177.55 932.39,2206.94 925.83,2218.92 871.41,2189.52"/>
    <poly id="292878531" type="building" color="255,230,230" fill="1" layer="-1.00" shape="889.72,2232.54 876.45,2255.82 889.33,2263.41 903.06,2240.39 909.17,2243.98 914.79,2234.57 875.27,2211.31 876.65,2209.01 865.07,2202.20 854.72,2219.55 869.01,2227.97 872.38,2222.34 889.72,2232.54"/>
    <poly id="292878533" type="building" color="255,230,230" fill="1" layer="-1.00" shape="1045.71,1760.54 1051.34,1746.80 1059.30,1750.32 1061.17,1745.78 1075.92,1752.44 1073.98,1756.48 1079.19,1759.17 1081.15,1755.32 1095.39,1762.42 1093.36,1766.24 1101.62,1770.64 1095.90,1782.60 1045.71,1760.54"/>
    <poly id="292878535" type="building" color="255,230,230" fill="1" layer="-1.00" shape="718.53,1581.34 711.54,1598.56 772.61,1623.03 779.60,1605.82 718.53,1581.34"/>
    <poly id="292878537" type="building" color="255,230,230" fill="1" layer="-1.00" shape="685.07,1798.63 689.90,1789.85 736.25,1815.09 731.41,1823.87 685.07,1798.63"/>
    <poly id="292878538" type="building" color="255,230,230" fill="1" layer="-1.00" shape="1206.98,1855.35 1202.65,1864.80 1235.00,1879.39 1239.33,1869.92 1206.98,1855.35"/>
    <poly id="292878539" type="building" color="255,230,230" fill="1" layer="-1.00" shape="1172.13,1735.79 1179.53,1719.80 1215.93,1736.44 1208.52,1752.44 1172.13,1735.79"/>
    <poly id="292878540" type="building" color="255,230,230" fill="1" layer="-1.00" shape="879.16,1220.53 872.97,1242.58 954.81,1265.25 960.99,1243.19 879.16,1220.53"/>
    <poly id="292878541" type="building" color="255,230,230" fill="1" layer="-1.00" shape="1242.26,1743.60 1248.85,1729.23 1284.09,1745.17 1277.50,1759.54 1242.26,1743.60"/>
    <poly id="292878542" type="building" color="255,230,230" fill="1" layer="-1.00" shape="696.89,1932.06 703.50,1919.77 773.04,1956.70 766.44,1968.98 696.89,1932.06"/>
    <poly id="292878543" type="building" color="255,230,230" fill="1" layer="-1.00" shape="1229.96,1614.51 1235.99,1601.34 1270.93,1617.13 1264.90,1630.29 1229.96,1614.51"/>
    <poly id="292878545" type="building" color="255,230,230" fill="1" layer="-1.00" shape="743.65,1828.10 734.56,1822.99 774.08,1753.61 783.17,1758.73 743.65,1828.10"/>
    <poly id="292878546" type="building" color="255,230,230" fill="1" layer="-1.00" shape="1143.70,1838.22 1153.84,1842.56 1167.07,1812.01 1156.93,1807.68 1143.70,1838.22"/>
    <poly id="292878547" type="building" color="255,230,230" fill="1" layer="-1.00" shape="1182.22,1716.04 1189.41,1700.44 1224.99,1716.64 1217.81,1732.24 1182.22,1716.04"/>
    <poly id="292878550" type="amenity" color="237,199,199" fill="1" layer="-1.00" shape="829.35,2204.33 844.05,2212.73 863.34,2179.39 848.64,2170.99 829.35,2204.33"/>
    <poly id="292878550#1" type="building" color="255,230,230" fill="1" layer="-1.00" shape="829.35,2204.33 844.05,2212.73 863.34,2179.39 848.64,2170.99 829.35,2204.33"/>
    <poly id="292878551" type="building" color="255,230,230" fill="1" layer="-1.00" shape="1237.95,1595.78 1244.14,1581.91 1279.30,1597.40 1273.10,1611.27 1237.95,1595.78"/>
    <poly id="292878553" type="building" color="255,230,230" fill="1" layer="-1.00" shape="1232.68,1763.51 1239.28,1749.20 1274.04,1765.02 1267.44,1779.33 1232.68,1763.51"/>
    <poly id="292878556" type="building" color="255,230,230" fill="1" layer="-1.00" shape="695.03,1782.54 705.16,1787.40 732.93,1737.69 723.39,1731.96 695.03,1782.54"/>
    <poly id="292878557" type="building" color="255,230,230" fill="1" layer="-1.00" shape="1156.60,1846.48 1160.99,1835.76 1196.49,1850.10 1192.11,1860.82 1156.60,1846.48"/>
    <poly id="292878558" type="building" color="255,230,230" fill="1" layer="-1.00" shape="1158.94,1802.54 1168.91,1807.01 1182.99,1775.96 1173.01,1771.49 1158.94,1802.54"/>
    <poly id="292878559" type="building" color="255,230,230" fill="1" layer="-1.00" shape="1208.18,1663.86 1213.97,1650.60 1249.55,1665.93 1243.78,1679.17 1208.18,1663.86"/>
    <poly id="292878562" type="building" color="255,230,230" fill="1" layer="-1.00" shape="1160.03,1699.93 1154.30,1714.46 1167.39,1720.48 1173.24,1706.20 1160.03,1699.93"/>
    <poly id="292878563" type="building" color="255,230,230" fill="1" layer="-1.00" shape="1216.70,1644.88 1222.69,1631.06 1258.49,1646.32 1252.48,1660.19 1216.70,1644.88"/>
    <poly id="292878564" type="building" color="255,230,230" fill="1" layer="-1.00" shape="1010.50,1822.48 1011.92,1818.81 1044.33,1833.04 1046.61,1835.21 1047.23,1838.75 1039.76,1854.03 1034.42,1852.61 1010.50,1822.48"/>
    <poly id="317474241" type="building" color="255,230,230" fill="1" layer="-1.00" shape="720.97,1892.78 726.54,1882.58 656.67,1842.02 650.29,1852.82 653.73,1854.72 646.88,1867.34 631.33,1894.21 642.35,1902.58 666.28,1862.76 720.97,1892.78"/>
    <poly id="317474242" type="building" color="255,230,230" fill="1" layer="-1.00" shape="736.53,2001.95 742.90,1990.53 736.70,1987.03 722.00,1979.01 715.62,1990.43 736.53,2001.95"/>
    <poly id="317474243" type="building" color="255,230,230" fill="1" layer="-1.00" shape="807.54,2039.93 813.70,2029.54 750.47,1992.57 744.31,2002.97 807.54,2039.93"/>
    <poly id="317474244" type="building" color="255,230,230" fill="1" layer="-1.00" shape="965.73,2145.91 974.64,2130.69 909.30,2092.95 900.40,2108.18 965.73,2145.91"/>
    <poly id="317474246" type="building" color="255,230,230" fill="1" layer="-1.00" shape="875.89,2124.75 893.08,2134.04 899.17,2122.94 881.98,2113.64 875.89,2124.75"/>
    <poly id="317474247" type="building" color="255,230,230" fill="1" layer="-1.00" shape="884.35,2104.19 896.91,2111.16 923.75,2063.39 911.19,2056.42 906.75,2064.33 884.35,2104.19"/>
    <poly id="317474248" type="building" color="255,230,230" fill="1" layer="-1.00" shape="904.35,1957.07 915.26,1938.05 894.41,1926.25 883.50,1945.26 904.35,1957.07"/>
    <poly id="317474249" type="building" color="255,230,230" fill="1" layer="-1.00" shape="913.93,1912.01 918.37,1904.18 872.70,1878.62 868.26,1886.45 913.93,1912.01"/>
    <poly id="317474251" type="building" color="255,230,230" fill="1" layer="-1.00" shape="959.00,1984.72 965.62,1974.34 951.07,1965.18 944.45,1975.57 959.00,1984.72"/>
    <poly id="317474252" type="building" color="255,230,230" fill="1" layer="-1.00" shape="949.03,1998.57 943.53,2008.36 902.66,1985.72 908.16,1975.92 949.03,1998.57"/>
    <poly id="317474253" type="building" color="255,230,230" fill="1" layer="-1.00" shape="933.51,2028.91 938.91,2019.68 899.68,1997.65 894.27,2007.15 933.51,2028.91"/>
    <poly id="317474254" type="building" color="255,230,230" fill="1" layer="-1.00" shape="1004.42,2145.10 1016.93,2133.95 1003.39,2118.92 990.87,2130.08 1004.42,2145.10"/>
    <poly id="317474255" type="building" color="255,230,230" fill="1" layer="-1.00" shape="834.28,1841.59 839.73,1831.74 787.35,1803.16 781.90,1813.01 834.28,1841.59"/>
    <poly id="317474256" type="building" color="255,230,230" fill="1" layer="-1.00" shape="802.75,1776.64 792.49,1770.74 757.06,1831.42 767.32,1837.32 802.75,1776.64"/>
    <poly id="317474752" type="building" color="255,230,230" fill="1" layer="-1.00" shape="1019.82,2049.42 1025.65,2040.63 962.70,2005.39 956.87,2014.18 1019.82,2049.42"/>
    <poly id="317474753" type="building" color="255,230,230" fill="1" layer="-1.00" shape="998.03,2090.28 1008.15,2072.77 944.88,2036.66 934.76,2054.17 998.03,2090.28"/>
    <poly id="317474754" type="building" color="255,230,230" fill="1" layer="-1.00" shape="771.92,2077.04 762.29,2094.93 750.39,2088.61 760.03,2070.72 771.92,2077.04"/>
    <poly id="317474755" type="water" color="181,209,209" fill="1" layer="-4.00" shape="755.49,1837.57 751.18,1834.93 746.22,1833.88 741.20,1834.53 736.69,1836.80 733.19,1840.45 731.11,1845.04 730.70,1850.04 731.89,1854.67 734.48,1858.69 738.23,1861.68 742.74,1863.34 747.54,1863.49 752.15,1862.13 756.08,1859.37 758.93,1855.54 760.41,1851.00 760.36,1846.22 758.67,1841.48 755.49,1837.57"/>
    <poly id="317474957" type="building" color="255,230,230" fill="1" layer="-1.00" shape="643.56,1910.98 666.15,1922.38 660.60,1933.22 638.02,1921.83 643.56,1910.98"/>
    <poly id="317493248" type="building" color="255,230,230" fill="1" layer="-1.00" shape="673.95,1745.08 686.95,1748.65 694.28,1722.20 701.50,1724.16 707.56,1702.30 701.37,1700.61 702.43,1696.79 688.39,1692.94 673.95,1745.08"/>
    <poly id="319471509" type="historic" color="128,255,128" fill="1" layer="-1.00" shape="1228.55,976.35 1238.42,978.24 1240.25,968.78 1230.38,966.89 1228.55,976.35"/>
    <poly id="319782550" type="amenity" color="237,199,199" fill="1" layer="-1.00" shape="1251.95,1004.18 1262.22,949.45 1330.22,960.89 1318.18,1017.37 1251.95,1004.18"/>
    <poly id="319782550#1" type="building" color="255,230,230" fill="1" layer="-1.00" shape="1251.95,1004.18 1262.22,949.45 1330.22,960.89 1318.18,1017.37 1251.95,1004.18"/>
    <poly id="324372236" type="building" color="255,230,230" fill="1" layer="-1.00" shape="364.38,1043.58 415.06,1077.26 482.15,977.62 431.47,943.94 364.38,1043.58"/>
    <poly id="324372237" type="building" color="255,230,230" fill="1" layer="-1.00" shape="444.32,932.60 491.71,965.04 522.68,920.37 475.27,887.94 444.32,932.60"/>
    <poly id="331167411" type="water" color="181,209,209" fill="1" layer="-4.00" shape="266.84,1494.95 377.48,1569.36 369.38,1570.55 357.02,1569.61 342.00,1566.69 326.63,1563.42 316.87,1559.22 310.14,1554.59 303.67,1548.99 292.96,1539.47 284.21,1529.97 277.14,1519.77 270.80,1509.57 266.14,1500.09 265.17,1496.56 265.01,1494.96 266.84,1494.95"/>
    <poly id="331167412" type="water" color="181,209,209" fill="1" layer="-4.00" shape="548.93,1044.78 560.07,1040.32 569.16,1038.08 579.31,1037.08 590.78,1036.34 603.59,1037.21 612.12,1038.49 619.84,1040.82 632.62,1045.94 644.86,1052.28 656.81,1062.95 671.66,1079.11 679.60,1091.88 685.28,1104.45 690.46,1121.97 693.40,1137.48 673.84,1126.12 548.93,1044.78"/>
    <poly id="331167413" type="water" color="181,209,209" fill="1" layer="-4.00" shape="604.20,976.79 552.88,978.05 549.12,976.66 547.59,973.75 550.89,933.88 552.46,929.46 556.77,926.75 580.10,927.22 584.37,929.29 585.39,933.22 585.36,939.36 588.42,942.78 591.33,944.67 605.39,945.43 613.29,945.31 615.17,946.84 615.01,975.31 612.95,976.50 604.20,976.79"/>
    <poly id="331167416" type="leisure" color="207,245,201" fill="1" layer="-2.00" shape="237.79,1581.90 229.91,1561.46 188.53,1577.21 196.40,1597.64 237.79,1581.90"/>
    <poly id="331167416#1" type="sport" color="79,230,125" fill="1" layer="-2.00" shape="237.79,1581.90 229.91,1561.46 188.53,1577.21 196.40,1597.64 237.79,1581.90"/>
    <poly id="331167417" type="leisure" color="207,245,201" fill="1" layer="-2.00" shape="651.61,977.79 631.75,977.84 631.92,938.16 651.81,938.29 651.61,977.79"/>
    <poly id="331167417#1" type="sport" color="79,230,125" fill="1" layer="-2.00" shape="651.61,977.79 631.75,977.84 631.92,938.16 651.81,938.29 651.61,977.79"/>
    <poly id="331167418" type="leisure" color="207,245,201" fill="1" layer="-2.00" shape="428.83,1660.27 468.32,1653.69 463.94,1627.63 424.36,1634.18 428.83,1660.27"/>
    <poly id="331167418#1" type="sport" color="79,230,125" fill="1" layer="-2.00" shape="428.83,1660.27 468.32,1653.69 463.94,1627.63 424.36,1634.18 428.83,1660.27"/>
    <poly id="331167419" type="leisure" color="207,245,201" fill="1" layer="-2.00" shape="182.94,1556.18 175.86,1538.24 211.85,1524.22 218.92,1542.17 182.94,1556.18"/>
    <poly id="331167419#1" type="sport" color="79,230,125" fill="1" layer="-2.00" shape="182.94,1556.18 175.86,1538.24 211.85,1524.22 218.92,1542.17 182.94,1556.18"/>
    <poly id="331167422" type="leisure" color="207,245,201" fill="1" layer="-2.00" shape="753.12,1064.46 752.65,1039.48 739.32,1039.73 739.79,1064.71 753.12,1064.46"/>
    <poly id="331167423" type="leisure" color="207,245,201" fill="1" layer="-2.00" shape="712.72,1025.94 712.42,974.81 738.87,974.67 739.16,1025.78 712.72,1025.94"/>
    <poly id="331167424" type="leisure" color="207,245,201" fill="1" layer="-2.00" shape="303.02,1682.14 296.65,1647.72 260.95,1654.24 267.32,1688.65 303.02,1682.14"/>
    <poly id="331167426" type="amenity" color="237,199,199" fill="1" layer="-1.00" shape="652.77,1407.86 702.59,1423.34 709.24,1402.19 659.41,1386.71 652.77,1407.86"/>
    <poly id="331167427" type="leisure" color="207,245,201" fill="1" layer="-2.00" shape="428.83,1660.27 385.95,1667.52 381.47,1641.44 424.36,1634.18 428.83,1660.27"/>
    <poly id="331167427#1" type="sport" color="79,230,125" fill="1" layer="-2.00" shape="428.83,1660.27 385.95,1667.52 381.47,1641.44 424.36,1634.18 428.83,1660.27"/>
    <poly id="331167428" type="leisure" color="207,245,201" fill="0" layer="-2.00" shape="262.78,1420.93 266.84,1415.32 271.04,1413.21 312.79,1353.21 318.10,1348.49 322.27,1345.89 327.94,1343.04 333.11,1340.95 340.17,1339.24 346.21,1338.02 353.25,1338.06 360.29,1338.71 366.94,1341.25 374.60,1344.92 380.75,1348.70 385.37,1352.73 389.62,1357.88 393.50,1363.14 395.98,1368.65 397.71,1374.79 398.55,1381.30 398.52,1388.17 398.11,1393.54 396.44,1399.78 394.15,1405.27 392.49,1409.50 368.90,1444.00 343.70,1476.85 338.90,1480.69 333.97,1484.05 327.04,1487.39 317.97,1489.71 310.67,1490.04 303.75,1489.76 297.35,1488.35 290.94,1486.19 284.17,1482.40 279.66,1478.63 275.40,1475.11 271.95,1471.09"/>
    <poly id="331167429" type="leisure" color="207,245,201" fill="1" layer="-2.00" shape="267.00,1445.78 267.28,1439.85 267.68,1435.29 268.71,1431.55 270.49,1427.31 272.08,1423.75 276.97,1416.04 288.25,1398.47 298.31,1382.42 305.40,1371.41 309.97,1363.84 313.56,1358.90 317.58,1354.87 322.67,1350.38 327.85,1347.32 332.40,1345.22 337.30,1343.66 343.35,1342.72 349.67,1341.95 355.45,1342.52 363.00,1344.24 369.83,1346.57 374.98,1349.78 379.76,1353.52 383.12,1356.72 386.30,1360.80 389.30,1364.62 391.86,1369.31 393.61,1374.89 394.74,1380.82 395.42,1386.21 394.94,1392.31 393.49,1397.96 391.95,1402.54 388.71,1408.53 373.30,1429.49 349.91,1462.49 344.44,1470.68 340.68,1474.47 336.49,1477.97 332.38,1480.96 328.18,1483.32 323.01,1485.51 317.58,1486.71 311.26,1487.38 304.50,1486.90 298.02,1485.29 292.96,1483.13 287.64,1480.19 281.97,1476.27 277.81,1472.53 274.98,1468.64 272.61,1464.46 269.97,1458.89 268.57,1454.81 267.44,1449.77 267.00,1445.78"/>
    <poly id="331167430" type="leisure" color="207,245,201" fill="1" layer="-2.00" shape="229.91,1561.46 221.95,1541.26 218.92,1542.17 182.94,1556.18 180.96,1556.70 188.53,1577.21 229.91,1561.46"/>
    <poly id="331167430#1" type="sport" color="79,230,125" fill="1" layer="-2.00" shape="229.91,1561.46 221.95,1541.26 218.92,1542.17 182.94,1556.18 180.96,1556.70 188.53,1577.21 229.91,1561.46"/>
    <poly id="331167431" type="leisure" color="207,245,201" fill="1" layer="-2.00" shape="316.64,1493.82 325.73,1491.83 330.09,1490.18 334.64,1487.73 340.80,1483.34 345.71,1479.39 352.61,1471.65 355.65,1467.51 371.14,1449.13 397.79,1416.55 394.96,1414.32 394.26,1412.19 394.90,1410.26 399.29,1403.11 401.19,1397.03 402.11,1391.03 402.06,1383.87 401.65,1376.98 400.79,1371.93 398.95,1367.24 396.67,1362.02 394.11,1357.31 391.37,1353.86 388.28,1350.21 384.65,1346.74 381.55,1344.70 375.07,1340.44 366.41,1337.08 362.15,1335.64 357.08,1334.90 350.77,1334.34 346.94,1334.32 341.43,1334.91 333.50,1336.55 327.79,1338.37 323.16,1340.47 318.25,1343.71 313.42,1347.84 309.31,1351.97 304.48,1357.86 299.46,1364.47 275.53,1398.09 261.37,1416.84 257.07,1423.26 259.20,1424.34 260.36,1422.66 263.74,1424.36 262.73,1427.81 260.57,1432.83 259.57,1438.39 259.72,1443.70 260.22,1450.15 261.52,1456.61 263.53,1462.18 265.38,1466.26 267.75,1470.60 270.40,1474.24 274.29,1478.41 279.07,1482.60 283.06,1485.09 286.88,1487.58 291.30,1490.44 295.66,1491.79 301.87,1493.41 308.28,1494.23 312.81,1494.17 316.64,1493.82"/>
    <poly id="331167432" type="building" color="255,230,230" fill="1" layer="-1.00" shape="118.71,1647.11 108.89,1563.41 76.97,1566.79 91.43,1702.35 181.82,1694.09 178.77,1662.60 140.61,1666.46 139.47,1660.34 122.53,1645.38 118.71,1647.11"/>
    <poly id="331167433" type="building" color="255,230,230" fill="1" layer="-1.00" shape="252.07,1683.19 251.39,1678.90 253.30,1678.60 251.51,1667.28 249.46,1667.59 248.40,1660.89 234.56,1663.04 234.90,1665.17 226.44,1666.49 226.12,1664.44 213.24,1666.45 213.58,1668.57 211.63,1668.87 212.23,1672.66 210.44,1672.94 212.15,1683.78 213.95,1683.50 214.55,1687.34 215.81,1687.15 216.08,1688.85 230.08,1686.67 229.78,1684.82 238.48,1683.46 238.77,1685.27 252.07,1683.19"/>
    <poly id="331167434" type="building" color="255,230,230" fill="1" layer="-1.00" shape="718.37,1303.42 715.79,1312.74 718.62,1319.67 709.45,1354.79 703.29,1357.69 700.87,1367.53 663.01,1358.66 681.49,1293.34 718.37,1303.42"/>
    <poly id="331167434#1" type="leisure" color="207,245,201" fill="1" layer="-2.00" shape="718.37,1303.42 715.79,1312.74 718.62,1319.67 709.45,1354.79 703.29,1357.69 700.87,1367.53 663.01,1358.66 681.49,1293.34 718.37,1303.42"/>
    <poly id="331167436" type="leisure" color="207,245,201" fill="1" layer="-2.00" shape="330.71,1471.62 382.28,1390.50 326.76,1355.66 275.19,1436.78 330.71,1471.62"/>
    <poly id="331167436#1" type="sport" color="79,230,125" fill="1" layer="-2.00" shape="330.71,1471.62 382.28,1390.50 326.76,1355.66 275.19,1436.78 330.71,1471.62"/>
    <poly id="331167437" type="unknown" color="51,128,255" fill="1" layer="-1.00" shape="278.36,1648.88 272.76,1615.17 203.17,1626.57 214.65,1657.98 278.36,1648.88"/>
    <poly id="331167438" type="building" color="255,230,230" fill="1" layer="-1.00" shape="374.88,1635.67 374.93,1626.05 363.48,1627.45 349.40,1626.21 338.85,1625.28 326.01,1623.81 293.07,1611.21 290.14,1613.60 287.79,1627.91 305.56,1634.18 327.62,1638.40 342.30,1638.99 357.26,1639.36 374.88,1635.67"/>
    <poly id="331167439" type="building" color="255,230,230" fill="1" layer="-1.00" shape="820.29,1065.86 834.51,1018.47 795.89,1006.89 795.42,1008.31 788.44,1008.41 786.65,1012.36 780.90,1013.23 773.73,1021.47 762.60,1065.41 775.65,1068.44 778.13,1059.82 779.65,1060.28 781.70,1054.64 806.46,1062.10 805.95,1064.02 813.41,1066.12 813.92,1064.24 820.29,1065.86"/>
    <poly id="331167440" type="building" color="255,230,230" fill="1" layer="-1.00" shape="152.41,1500.68 156.38,1494.24 158.67,1495.58 167.06,1481.53 164.52,1480.06 168.56,1472.85 161.61,1469.14 163.81,1464.87 151.69,1457.58 149.17,1461.91 142.40,1457.95 138.97,1463.72 136.72,1462.28 127.85,1477.32 129.79,1478.48 126.35,1484.98 133.31,1488.87 131.11,1492.47 143.50,1498.70 145.04,1496.35 152.41,1500.68"/>
    <poly id="331167441" type="building" color="255,230,230" fill="1" layer="-1.00" shape="140.62,1554.33 144.59,1547.90 146.90,1549.24 155.28,1535.18 152.74,1533.71 156.79,1526.50 149.83,1522.79 152.03,1518.52 139.90,1511.23 137.39,1515.56 130.62,1511.61 127.18,1517.37 124.94,1515.93 116.07,1530.97 118.00,1532.13 114.57,1538.62 121.52,1542.52 119.33,1546.12 131.72,1552.34 133.25,1550.00 140.62,1554.33"/>
    <poly id="331167442" type="building" color="255,230,230" fill="1" layer="-1.00" shape="757.31,1069.40 757.38,1058.74 758.80,1058.80 759.79,1058.47 760.61,1057.29 763.29,1037.77 763.60,1032.55 755.66,1033.34 755.87,1034.55 754.86,1034.02 753.95,1034.25 753.00,1034.56 752.64,1035.37 752.69,1036.38 753.05,1037.42 753.83,1037.98 754.90,1038.24 755.89,1038.24 755.83,1042.23 752.07,1042.08 752.22,1069.49 757.31,1069.40"/>
    <poly id="331167443" type="building" color="255,230,230" fill="1" layer="-1.00" shape="104.69,1497.07 108.66,1490.64 110.96,1491.98 119.35,1477.92 116.81,1476.45 120.85,1469.24 113.89,1465.53 115.29,1462.59 103.37,1455.41 101.45,1458.30 94.68,1454.35 91.26,1460.11 89.00,1458.67 80.14,1473.71 82.07,1474.87 78.64,1481.36 85.59,1485.26 83.39,1488.86 95.52,1495.59 97.31,1492.74 104.69,1497.07"/>
    <poly id="331167444" type="building" color="255,230,230" fill="1" layer="-1.00" shape="630.94,937.78 630.95,976.31 620.27,976.30 620.26,937.78 630.94,937.78"/>
    <poly id="331167445" type="building" color="255,230,230" fill="1" layer="-1.00" shape="728.04,1036.18 728.15,1029.33 716.47,1029.15 716.36,1035.98 728.04,1036.18"/>
    <poly id="331167446" type="building" color="255,230,230" fill="1" layer="-1.00" shape="668.05,978.05 668.49,938.20 653.56,938.05 653.13,977.88 668.05,978.05"/>
    <poly id="331167447" type="building" color="255,230,230" fill="1" layer="-1.00" shape="268.32,1610.41 267.24,1602.71 205.25,1611.33 206.34,1619.01 268.32,1610.41"/>
    <poly id="331167448" type="building" color="255,230,230" fill="1" layer="-1.00" shape="665.44,1600.28 656.24,1597.69 658.22,1590.83 661.54,1581.82 669.54,1584.15 665.44,1600.28"/>
    <poly id="331167450" type="building" color="255,230,230" fill="1" layer="-1.00" shape="118.45,1436.66 103.75,1428.79 92.30,1449.64 107.19,1456.62 118.45,1436.66"/>
    <poly id="331167451" type="building" color="255,230,230" fill="1" layer="-1.00" shape="738.85,1070.19 738.28,1042.18 732.47,1042.86 728.27,1045.82 727.84,1053.99 732.22,1054.01 732.66,1070.22 738.85,1070.19"/>
    <poly id="331167452" type="building" color="255,230,230" fill="1" layer="-1.00" shape="515.01,1555.85 497.81,1551.17 512.85,1528.10 516.39,1527.81 519.17,1528.98 514.13,1541.78 519.04,1543.19 515.01,1555.85"/>
    <poly id="331167453" type="building" color="255,230,230" fill="1" layer="-1.00" shape="762.85,1026.84 743.01,1027.31 741.70,973.85 761.75,973.38 762.21,992.27 764.24,992.23 764.54,1004.06 762.29,1004.12 762.85,1026.84"/>
    <poly id="331167453#1" type="sport" color="79,230,125" fill="1" layer="-2.00" shape="762.85,1026.84 743.01,1027.31 741.70,973.85 761.75,973.38 762.21,992.27 764.24,992.23 764.54,1004.06 762.29,1004.12 762.85,1026.84"/>
    <poly id="331167454" type="building" color="255,230,230" fill="1" layer="-1.00" shape="784.98,1092.93 789.07,1077.71 795.14,1079.33 796.64,1073.72 790.74,1072.15 792.45,1065.74 780.17,1062.48 772.86,1089.71 784.98,1092.93"/>
    <poly id="331167455" type="leisure" color="207,245,201" fill="0" layer="-2.00" shape="271.95,1471.09 268.71,1465.45 266.22,1460.18 264.24,1454.67 263.14,1447.54 263.57,1439.55 264.36,1432.93 265.39,1428.31 268.83,1419.02 271.04,1413.21"/>
    <poly id="331234556" type="building" color="255,230,230" fill="1" layer="-1.00" shape="170.11,1423.30 205.32,1366.96 198.74,1362.91 203.32,1357.10 211.22,1360.21 232.98,1322.59 225.98,1317.59 231.15,1310.04 239.34,1314.31 275.75,1253.88 268.58,1250.19 273.46,1242.94 263.37,1236.04 144.57,1425.58 154.36,1431.89 162.65,1419.12 170.11,1423.30"/>
    <poly id="331234557" type="leisure" color="207,245,201" fill="1" layer="-2.00" shape="441.77,1519.65 469.75,1477.44 394.13,1427.96 366.16,1470.17 441.77,1519.65"/>
    <poly id="331234557#1" type="sport" color="79,230,125" fill="1" layer="-2.00" shape="441.77,1519.65 469.75,1477.44 394.13,1427.96 366.16,1470.17 441.77,1519.65"/>
    <poly id="331234558" type="leisure" color="207,245,201" fill="1" layer="-2.00" shape="441.77,1519.65 413.23,1563.52 337.24,1512.80 366.16,1470.17 441.77,1519.65"/>
    <poly id="331234558#1" type="sport" color="79,230,125" fill="1" layer="-2.00" shape="441.77,1519.65 413.23,1563.52 337.24,1512.80 366.16,1470.17 441.77,1519.65"/>
    <poly id="366664389" type="leisure" color="207,245,201" fill="1" layer="-2.00" shape="230.60,1419.25 324.37,1279.61 306.31,1267.63 212.54,1407.28 230.60,1419.25"/>
    <poly id="366664389#1" type="sport" color="79,230,125" fill="1" layer="-2.00" shape="230.60,1419.25 324.37,1279.61 306.31,1267.63 212.54,1407.28 230.60,1419.25"/>
    <poly id="405119310" type="building" color="255,230,230" fill="1" layer="-1.00" shape="101.89,1795.51 166.98,1784.03 158.19,1724.81 102.30,1734.49 96.24,1742.24 101.89,1795.51"/>
    <poly id="405236134" type="building" color="255,230,230" fill="1" layer="-1.00" shape="1022.97,1298.76 1032.29,1258.88 974.64,1239.81 979.67,1223.92 1058.45,1247.65 1040.84,1302.35 1022.97,1298.76"/>
    <poly id="457601643" type="amenity" color="237,199,199" fill="1" layer="-1.00" shape="276.26,1827.58 283.16,1796.48 281.63,1768.35 211.15,1776.00 203.25,1805.08 276.26,1827.58"/>
    <poly id="457601644" type="tourism" color="207,245,201" fill="1" layer="-2.00" shape="604.80,1860.87 574.72,1846.72 571.65,1842.67 572.83,1839.21 578.27,1836.54 612.25,1834.22 604.80,1860.87"/>
    <poly id="457601645" type="tourism" color="207,245,201" fill="1" layer="-2.00" shape="125.38,2188.41 116.83,2070.64 51.36,2086.52 51.17,2121.02 58.08,2166.73 125.38,2188.41"/>
    <poly id="457601646" type="amenity" color="237,199,199" fill="1" layer="-1.00" shape="53.69,2079.72 53.02,2062.03 61.32,2030.15 90.38,2024.93 112.84,2022.35 116.09,2066.22 53.69,2079.72"/>
    <poly id="457601646#1" type="building" color="255,230,230" fill="1" layer="-1.00" shape="53.69,2079.72 53.02,2062.03 61.32,2030.15 90.38,2024.93 112.84,2022.35 116.09,2066.22 53.69,2079.72"/>
    <poly id="457601647" type="amenity" color="237,199,199" fill="1" layer="-1.00" shape="133.74,2104.67 173.66,2099.65 162.90,2026.73 124.75,2031.18 133.74,2104.67"/>
    <poly id="457601648" type="amenity" color="237,199,199" fill="1" layer="-1.00" shape="194.10,1991.83 148.44,1973.22 160.34,1942.97 209.51,1963.64 194.10,1991.83"/>
    <poly id="458865801" type="tourism" color="207,245,201" fill="1" layer="-2.00" shape="156.20,1614.00 169.06,1623.68 185.20,1622.32 184.38,1610.94 160.12,1593.91 153.66,1594.45 156.20,1614.00"/>
    <poly id="458865802" type="amenity" color="237,199,199" fill="1" layer="-1.00" shape="191.66,1596.16 165.04,1524.69 141.93,1562.08 191.66,1596.16"/>
    <poly id="458865803" type="building" color="255,230,230" fill="1" layer="-1.00" shape="172.32,1580.96 167.37,1566.33 163.88,1565.53 153.41,1568.75 148.84,1555.65 159.31,1552.05 160.29,1549.55 157.62,1542.81 163.08,1533.42 165.61,1532.08 182.78,1577.95 172.32,1580.96"/>
    <poly id="471453392" type="building" color="255,230,230" fill="1" layer="-1.00" shape="178.07,1825.69 187.15,1828.94 194.30,1807.99 181.71,1804.42 178.07,1825.69"/>
    <poly id="471462340" type="amenity" color="237,199,199" fill="1" layer="-1.00" shape="180.01,1793.63 189.38,1795.44 188.19,1798.93 194.93,1800.71 199.11,1785.58 189.74,1783.48 188.26,1787.27 181.81,1785.49 180.01,1793.63"/>
    <poly id="471462340#1" type="building" color="255,230,230" fill="1" layer="-1.00" shape="180.01,1793.63 189.38,1795.44 188.19,1798.93 194.93,1800.71 199.11,1785.58 189.74,1783.48 188.26,1787.27 181.81,1785.49 180.01,1793.63"/>