<?xml version="1.0" encoding="UTF-8"?>

<routes xmlns:xsi="http://www.w3.org/2001/XMLSchema-instance" xsi:noNamespaceSchemaLocation="http://sumo.dlr.de/xsd/routes_file.xsd">

	<vType id="car" vClass="passenger" sigma="0.8" tau="1.2" speedFactor="1" speedDev="0.2" minGap="2" maxSpeed="50" accel="2.9" decel="7.5" length="4.3" width="1.7"/>

    <vType id="motor1" vClass="motorcycle" sigma="0.8" tau="1.2" speedFactor="1"  speedDev="0.1" minGap="0.1" maxSpeed="20" accel="1.5" decel="7" length="2" width="0.7" latAlignment="arbitrary" minGapLat="0.05"/>

    <vType id="motor2" vClass="motorcycle" sigma="0.8" tau="1.2" speedFactor="1"  speedDev="0.1" minGap="0.2" maxSpeed="20" accel="1.5" decel="7" length="2" width="0.7" latAlignment="arbitrary" minGapLat="0.14"/>

    <vType id="motor3" vClass="motorcycle" sigma="0.8" tau="1.2" speedFactor="1"  speedDev="0.1" minGap="0.25" maxSpeed="20" accel="1.5" decel="7" length="2" width="0.7" latAlignment="arbitrary" minGapLat="0.07"/>

    <vType id="motor4" vClass="motorcycle" sigma="0.8" tau="1.2" speedFactor="1"  speedDev="0.1" minGap="0.3" maxSpeed="20" accel="1.5" decel="7" length="2" width="0.7" latAlignment="arbitrary" minGapLat="0.05"/>

    <vType id="motor5" vClass="motorcycle" sigma="0.8" tau="1.2" speedFactor="1"  speedDev="0.1" minGap="0.1" maxSpeed="20" accel="1.5" decel="7" length="2" width="0.7" latAlignment="arbitrary" minGapLat="0.06"/>

    <vType id="motor6" vClass="motorcycle" sigma="0.8" tau="1.2" speedFactor="1"  speedDev="0.1" minGap="0.2" maxSpeed="20" accel="1.5" decel="7" length="2" width="0.7" latAlignment="arbitrary" minGapLat="0.09"/>

    <vType id="motor7" vClass="motorcycle" sigma="0.8" tau="1.2" speedFactor="1"  speedDev="0.1" minGap="0.3" maxSpeed="20" accel="1.5" decel="7" length="2" width="0.7" latAlignment="arbitrary" minGapLat="0.16"/>

    <vType id="motor8" vClass="motorcycle" sigma="0.8" tau="1.2" speedFactor="1"  speedDev="0.1" minGap="0.4" maxSpeed="20" accel="1.5" decel="7" length="2" width="0.7" latAlignment="arbitrary" minGapLat="0.1"/>


    <!-- xe may tu tht -->
	<flow id="tht_motor1" type="motor1" from="tht_e8" begin="0" end="3600" vehsPerHour="2000"/>
	<flow id="tht_motor2" type="motor2" from="tht_e8" begin="0" end="3600" vehsPerHour="2000"/>
	<flow id="tht_motor3" type="motor3" from="tht_e8" begin="0" end="3600" vehsPerHour="2000"/>
	<flow id="tht_motor4" type="motor4" from="tht_e8" begin="0" end="3600" vehsPerHour="2000"/>
	<flow id="tht_motor5" type="motor5" from="tht_e8" begin="0" end="3600" vehsPerHour="2000"/>
	<flow id="tht_motor6" type="motor6" from="tht_e8" begin="0" end="3600" vehsPerHour="2000"/>
	<flow id="tht_motor7" type="motor7" from="tht_e8" begin="0" end="3600" vehsPerHour="2000"/>
	<flow id="tht_motor8" type="motor8" from="tht_e8" begin="0" end="3600" vehsPerHour="2000"/>

	<!-- xe may tu lg -->
	<flow id="lg_motor1" type="motor1" from="lg_e16" begin="0" end="3600" vehsPerHour="2100"/>
	<flow id="lg_motor2" type="motor2" from="lg_e16" begin="0" end="3600" vehsPerHour="2100"/>
	<flow id="lg_motor3" type="motor3" from="lg_e16" begin="0" end="3600" vehsPerHour="2100"/>
	<flow id="lg_motor4" type="motor4" from="lg_e16" begin="0" end="3600" vehsPerHour="2100"/>
	<flow id="lg_motor5" type="motor5" from="lg_e16" begin="0" end="3600" vehsPerHour="2100"/>
	<flow id="lg_motor6" type="motor6" from="lg_e16" begin="0" end="3600" vehsPerHour="2100"/>
	<flow id="lg_motor7" type="motor7" from="lg_e16" begin="0" end="3600" vehsPerHour="2100"/>
	<flow id="lg_motor8" type="motor8" from="lg_e16" begin="0" end="3600" vehsPerHour="2100"/>

	<!-- xe may tu 32 -->
	<flow id="ltk32_motor1" type="motor1" from="ltk32_e6" begin="0" end="3600" vehsPerHour="2500"/>
	<flow id="ltk32_motor2" type="motor2" from="ltk32_e6" begin="0" end="3600" vehsPerHour="2500"/>
	<flow id="ltk32_motor3" type="motor3" from="ltk32_e6" begin="0" end="3600" vehsPerHour="2500"/>
	<flow id="ltk32_motor4" type="motor4" from="ltk32_e6" begin="0" end="3600" vehsPerHour="2500"/>
	<flow id="ltk32_motor5" type="motor5" from="ltk32_e6" begin="0" end="3600" vehsPerHour="2500"/>
	<flow id="ltk32_motor6" type="motor6" from="ltk32_e6" begin="0" end="3600" vehsPerHour="2500"/>
	<flow id="ltk32_motor7" type="motor7" from="ltk32_e6" begin="0" end="3600" vehsPerHour="2500"/>
	<flow id="ltk32_motor8" type="motor8" from="ltk32_e6" begin="0" end="3600" vehsPerHour="2500"/>
	
	<!-- xe may tu bh -->
	<flow id="ltkbh_motor1" type="motor1" from="ltkbh_e9" begin="0" end="3600" vehsPerHour="2500"/>
	<flow id="ltkbh_motor2" type="motor2" from="ltkbh_e9" begin="0" end="3600" vehsPerHour="2500"/>
	<flow id="ltkbh_motor3" type="motor3" from="ltkbh_e9" begin="0" end="3600" vehsPerHour="2500"/>
	<flow id="ltkbh_motor4" type="motor4" from="ltkbh_e9" begin="0" end="3600" vehsPerHour="2500"/>
	<flow id="ltkbh_motor5" type="motor5" from="ltkbh_e9" begin="0" end="3600" vehsPerHour="2500"/>
	<flow id="ltkbh_motor6" type="motor6" from="ltkbh_e9" begin="0" end="3600" vehsPerHour="2500"/>
	<flow id="ltkbh_motor7" type="motor7" from="ltkbh_e9" begin="0" end="3600" vehsPerHour="2500"/>
	<flow id="ltkbh_motor8" type="motor8" from="ltkbh_e9" begin="0" end="3600" vehsPerHour="2500"/>

	<!-- oto -->
	<flow id="tht_car" type="car" from="tht_e8" begin="0" end="3600" vehsPerHour="175"/>
	<flow id="lg_car" type="car" from="lg_e16" begin="0" end="3600" vehsPerHour="190"/>
	<flow id="ltk32_car" type="car" from="ltk32_e6" begin="0" end="3600" vehsPerHour="250"/>
	<flow id="ltkbh_car" type="car" from="ltkbh_e9" begin="0" end="3600" vehsPerHour="300"/>
</routes>