<?xml version="1.0" encoding="UTF-8"?>

<!-- generated on 12/10/18 12:20:06 by Eclipse SUMO netedit Version v1_0_0+0273-790abe1ce9
<configuration xmlns:xsi="http://www.w3.org/2001/XMLSchema-instance" xsi:noNamespaceSchemaLocation="http://sumo.dlr.de/xsd/netconvertConfiguration.xsd">

    <input>
        <sumo-net-file value="maps/map.net.xml"/>
    </input>

    <output>
        <output-file value="maps/map.net.xml"/>
        <output.street-names value="true"/>
    </output>

    <processing>
        <offset.disable-normalization value="true"/>
        <lefthand value="false"/>
    </processing>

    <junctions>
        <no-turnarounds value="true"/>
        <junctions.corner-detail value="5"/>
        <junctions.limit-turn-speed value="5.5"/>
        <rectangular-lane-cut value="false"/>
    </junctions>

    <pedestrian>
        <walkingareas value="false"/>
    </pedestrian>

    <visualisation>
        <registry-viewport value="true"/>
    </visualisation>

</configuration>
-->

<net version="1.0" junctionCornerDetail="5" limitTurnSpeed="5.50" xmlns:xsi="http://www.w3.org/2001/XMLSchema-instance" xsi:noNamespaceSchemaLocation="http://sumo.dlr.de/xsd/net_file.xsd">

    <location netOffset="-678938.62,-1193215.12" convBoundary="1180.41,0.00,2381.14,1040.54" origBoundary="106.636682,10.789709,106.660445,10.801801" projParameter="+proj=utm +zone=48 +ellps=WGS84 +datum=WGS84 +units=m +no_defs"/>

    <type id="highway.bridleway" priority="1" numLanes="1" speed="2.78" allow="pedestrian" oneway="1" width="2.00"/>
    <type id="highway.bus_guideway" priority="1" numLanes="1" speed="27.78" allow="bus" oneway="1"/>
    <type id="highway.cycleway" priority="1" numLanes="1" speed="8.33" allow="bicycle" oneway="0" width="1.00"/>
    <type id="highway.footway" priority="1" numLanes="1" speed="2.78" allow="pedestrian" oneway="1" width="2.00"/>
    <type id="highway.ford" priority="1" numLanes="1" speed="2.78" allow="army" oneway="0"/>
    <type id="highway.living_street" priority="3" numLanes="1" speed="2.78" disallow="tram rail_urban rail rail_electric ship" oneway="0"/>
    <type id="highway.motorway" priority="13" numLanes="2" speed="44.44" allow="private emergency authority army vip passenger hov taxi bus coach delivery truck trailer motorcycle evehicle custom1 custom2" oneway="1"/>
    <type id="highway.motorway_link" priority="12" numLanes="1" speed="22.22" allow="private emergency authority army vip passenger hov taxi bus coach delivery truck trailer motorcycle evehicle custom1 custom2" oneway="1"/>
    <type id="highway.path" priority="1" numLanes="1" speed="2.78" allow="bicycle pedestrian" oneway="1" width="2.00"/>
    <type id="highway.pedestrian" priority="1" numLanes="1" speed="2.78" allow="pedestrian" oneway="1" width="2.00"/>
    <type id="highway.primary" priority="9" numLanes="2" speed="27.78" disallow="tram rail_urban rail rail_electric ship" oneway="0"/>
    <type id="highway.primary_link" priority="8" numLanes="1" speed="22.22" disallow="tram rail_urban rail rail_electric ship" oneway="0"/>
    <type id="highway.raceway" priority="14" numLanes="2" speed="83.33" allow="vip" oneway="0"/>
    <type id="highway.residential" priority="4" numLanes="1" speed="13.89" disallow="tram rail_urban rail rail_electric ship" oneway="0"/>
    <type id="highway.secondary" priority="7" numLanes="2" speed="27.78" disallow="tram rail_urban rail rail_electric ship" oneway="0"/>
    <type id="highway.secondary_link" priority="6" numLanes="1" speed="22.22" disallow="tram rail_urban rail rail_electric ship" oneway="0"/>
    <type id="highway.service" priority="2" numLanes="1" speed="5.56" allow="delivery bicycle pedestrian" oneway="0"/>
    <type id="highway.stairs" priority="1" numLanes="1" speed="1.39" allow="pedestrian" oneway="1" width="2.00"/>
    <type id="highway.step" priority="1" numLanes="1" speed="1.39" allow="pedestrian" oneway="1" width="2.00"/>
    <type id="highway.steps" priority="1" numLanes="1" speed="1.39" allow="pedestrian" oneway="1" width="2.00"/>
    <type id="highway.tertiary" priority="6" numLanes="1" speed="22.22" disallow="tram rail_urban rail rail_electric ship" oneway="0"/>
    <type id="highway.tertiary_link" priority="5" numLanes="1" speed="22.22" disallow="tram rail_urban rail rail_electric ship" oneway="0"/>
    <type id="highway.track" priority="1" numLanes="1" speed="5.56" disallow="tram rail_urban rail rail_electric ship" oneway="0"/>
    <type id="highway.trunk" priority="11" numLanes="2" speed="27.78" disallow="tram rail_urban rail rail_electric bicycle pedestrian ship" oneway="0"/>
    <type id="highway.trunk_link" priority="10" numLanes="1" speed="22.22" disallow="tram rail_urban rail rail_electric bicycle pedestrian ship" oneway="0"/>
    <type id="highway.unclassified" priority="5" numLanes="1" speed="13.89" disallow="tram rail_urban rail rail_electric ship" oneway="0"/>
    <type id="highway.unsurfaced" priority="1" numLanes="1" speed="8.33" disallow="tram rail_urban rail rail_electric ship" oneway="0"/>
    <type id="railway.light_rail" priority="15" numLanes="1" speed="27.78" allow="rail_urban" oneway="1"/>
    <type id="railway.preserved" priority="15" numLanes="1" speed="27.78" allow="rail" oneway="1"/>
    <type id="railway.rail" priority="15" numLanes="1" speed="83.33" allow="rail rail_electric" oneway="1"/>
    <type id="railway.subway" priority="15" numLanes="1" speed="27.78" allow="rail_urban" oneway="1"/>
    <type id="railway.tram" priority="15" numLanes="1" speed="13.89" allow="tram" oneway="1"/>

    <edge id=":1522608526_0" function="internal">
        <lane id=":1522608526_0_0" index="0" disallow="tram rail_urban rail rail_electric ship" speed="7.85" length="0.72" shape="1651.87,451.32 1651.77,450.60"/>
    </edge>
    <edge id=":1522608526_1" function="internal">
        <lane id=":1522608526_1_0" index="0" disallow="tram rail_urban rail rail_electric ship" speed="6.56" length="0.30" shape="1654.52,449.53 1654.71,449.30"/>
    </edge>
    <edge id=":1522608526_2" function="internal">
        <lane id=":1522608526_2_0" index="0" disallow="tram rail_urban rail rail_electric ship" speed="3.65" length="0.15" shape="1654.52,449.53 1654.52,449.38"/>
    </edge>
    <edge id=":1522608526_7" function="internal">
        <lane id=":1522608526_7_0" index="0" speed="7.85" length="13.61" shape="1651.77,450.60 1651.61,449.47 1653.03,447.22 1656.15,444.56 1660.96,441.50"/>
    </edge>
    <edge id=":1522608526_8" function="internal">
        <lane id=":1522608526_8_0" index="0" speed="6.56" length="9.39" shape="1654.71,449.30 1655.42,448.43 1658.01,446.78 1660.86,445.18 1662.56,444.27"/>
    </edge>
    <edge id=":1522608526_9" function="internal">
        <lane id=":1522608526_9_0" index="0" speed="3.65" length="4.52" shape="1654.52,449.38 1654.52,448.09 1654.96,447.31 1655.84,447.19 1657.18,447.74"/>
    </edge>
    <edge id=":1522608526_3" function="internal">
        <lane id=":1522608526_3_0" index="0" disallow="tram rail_urban rail rail_electric ship" speed="27.78" length="16.04" shape="1646.36,448.06 1650.34,445.48 1652.86,443.40 1655.38,441.31 1659.37,438.73"/>
        <lane id=":1522608526_3_1" index="1" disallow="tram rail_urban rail rail_electric ship" speed="27.78" length="16.04" shape="1647.95,450.84 1651.94,448.26 1654.46,446.17 1656.98,444.08 1660.96,441.50"/>
    </edge>
    <edge id=":1522608526_5" function="internal">
        <lane id=":1522608526_5_0" index="0" disallow="tram rail_urban rail rail_electric ship" speed="7.91" length="13.08" shape="1647.95,450.84 1652.80,448.18 1656.39,446.47 1658.74,445.73 1659.83,445.95"/>
    </edge>
    <edge id=":1522608526_6" function="internal">
        <lane id=":1522608526_6_0" index="0" disallow="tram rail_urban rail rail_electric ship" speed="7.01" length="10.07" shape="1647.95,450.84 1651.59,448.89 1654.34,447.72 1656.20,447.34 1657.18,447.74"/>
    </edge>
    <edge id=":2078950342_0" function="internal">
        <lane id=":2078950342_0_0" index="0" allow="delivery bicycle pedestrian" speed="3.65" length="4.67" shape="1541.02,740.85 1539.77,741.56 1538.87,741.56 1538.34,740.84 1538.16,739.41"/>
    </edge>
    <edge id=":2078950409_0" function="internal">
        <lane id=":2078950409_0_0" index="0" allow="delivery bicycle pedestrian" speed="5.04" length="5.02" shape="1652.41,659.85 1651.14,659.34 1650.00,659.37 1649.02,659.92 1648.17,661.02"/>
    </edge>
    <edge id=":2078950409_1" function="internal">
        <lane id=":2078950409_1_0" index="0" allow="delivery bicycle pedestrian" speed="5.56" length="9.44" shape="1652.41,659.85 1644.19,655.22"/>
    </edge>
    <edge id=":2078950409_2" function="internal">
        <lane id=":2078950409_2_0" index="0" allow="delivery bicycle pedestrian" speed="3.65" length="4.67" shape="1652.41,659.85 1651.77,658.56 1651.83,657.67 1652.58,657.18 1654.02,657.09"/>
    </edge>
    <edge id=":2078950409_3" function="internal">
        <lane id=":2078950409_3_0" index="0" allow="delivery bicycle pedestrian" speed="5.56" length="9.51" shape="1645.72,652.42 1654.02,657.09"/>
    </edge>
    <edge id=":2078950409_4" function="internal">
        <lane id=":2078950409_4_0" index="0" allow="delivery bicycle pedestrian" speed="5.56" length="10.23" shape="1645.72,652.42 1647.97,654.10 1649.13,656.10 1649.20,658.40 1648.17,661.02"/>
    </edge>
    <edge id=":2078950409_5" function="internal">
        <lane id=":2078950409_5_0" index="0" allow="delivery bicycle pedestrian" speed="3.65" length="4.67" shape="1645.72,652.42 1646.39,653.70 1646.36,654.59 1645.62,655.10 1644.19,655.22"/>
    </edge>
    <edge id=":2078950409_6" function="internal">
        <lane id=":2078950409_6_0" index="0" allow="delivery bicycle pedestrian" speed="5.02" length="5.02" shape="1645.39,659.44 1645.89,658.16 1645.86,657.03 1645.29,656.05 1644.19,655.22"/>
    </edge>
    <edge id=":2078950409_7" function="internal">
        <lane id=":2078950409_7_0" index="0" allow="delivery bicycle pedestrian" speed="5.56" length="10.22" shape="1645.39,659.44 1647.10,657.22 1649.11,656.08 1651.42,656.04 1654.02,657.09"/>
    </edge>
    <edge id=":2078950409_8" function="internal">
        <lane id=":2078950409_8_0" index="0" allow="delivery bicycle pedestrian" speed="3.65" length="4.67" shape="1645.39,659.44 1646.68,658.79 1647.57,658.84 1648.07,659.58 1648.17,661.02"/>
    </edge>
    <edge id=":2078950412_0" function="internal">
        <lane id=":2078950412_0_0" index="0" allow="delivery bicycle pedestrian" speed="4.99" length="5.05" shape="1560.81,708.46 1559.51,707.96 1558.38,708.01 1557.41,708.60 1556.62,709.75"/>
    </edge>
    <edge id=":2078950412_1" function="internal">
        <lane id=":2078950412_1_0" index="0" allow="delivery bicycle pedestrian" speed="5.56" length="10.27" shape="1560.81,708.46 1558.54,706.74 1557.35,704.73 1557.25,702.42 1558.23,699.82"/>
    </edge>
    <edge id=":2078950412_2" function="internal">
        <lane id=":2078950412_2_0" index="0" allow="delivery bicycle pedestrian" speed="3.65" length="4.67" shape="1560.81,708.46 1560.15,707.17 1560.19,706.28 1560.93,705.78 1562.37,705.66"/>
    </edge>
    <edge id=":2078950412_3" function="internal">
        <lane id=":2078950412_3_0" index="0" allow="delivery bicycle pedestrian" speed="5.10" length="5.12" shape="1561.03,701.37 1560.55,702.66 1560.62,703.80 1561.22,704.80 1562.37,705.66"/>
    </edge>
    <edge id=":2078950412_4" function="internal">
        <lane id=":2078950412_4_0" index="0" allow="delivery bicycle pedestrian" speed="5.56" length="9.47" shape="1561.03,701.37 1556.62,709.75"/>
    </edge>
    <edge id=":2078950412_5" function="internal">
        <lane id=":2078950412_5_0" index="0" allow="delivery bicycle pedestrian" speed="3.65" length="4.67" shape="1561.03,701.37 1559.75,702.04 1558.86,702.00 1558.35,701.26 1558.23,699.82"/>
    </edge>
    <edge id=":2078950412_6" function="internal">
        <lane id=":2078950412_6_0" index="0" allow="delivery bicycle pedestrian" speed="5.56" length="9.60" shape="1553.76,708.31 1558.23,699.82"/>
    </edge>
    <edge id=":2078950412_7" function="internal">
        <lane id=":2078950412_7_0" index="0" allow="delivery bicycle pedestrian" speed="5.56" length="10.38" shape="1553.76,708.31 1555.39,705.96 1557.37,704.74 1559.70,704.64 1562.37,705.66"/>
    </edge>
    <edge id=":2078950412_8" function="internal">
        <lane id=":2078950412_8_0" index="0" allow="delivery bicycle pedestrian" speed="3.65" length="4.67" shape="1553.76,708.31 1555.01,707.60 1555.91,707.60 1556.44,708.32 1556.62,709.75"/>
    </edge>
    <edge id=":2078950572_0" function="internal">
        <lane id=":2078950572_0_0" index="0" allow="delivery bicycle pedestrian" speed="3.65" length="4.67" shape="1659.30,769.39 1658.65,770.68 1657.91,771.18 1657.06,770.88 1656.12,769.79"/>
    </edge>
    <edge id=":2078950650_0" function="internal">
        <lane id=":2078950650_0_0" index="0" allow="delivery bicycle pedestrian" speed="5.05" length="4.99" shape="1581.51,670.75 1580.23,670.28 1579.10,670.33 1578.12,670.90 1577.30,671.99"/>
    </edge>
    <edge id=":2078950650_1" function="internal">
        <lane id=":2078950650_1_0" index="0" disallow="tram rail_urban rail rail_electric ship" speed="22.22" length="9.59" shape="1581.51,670.75 1573.12,666.10"/>
    </edge>
    <edge id=":2078950650_2" function="internal">
        <lane id=":2078950650_2_0" index="0" allow="delivery bicycle pedestrian" speed="6.99" length="2.03" shape="1581.51,670.75 1579.88,669.54"/>
    </edge>
    <edge id=":2078950650_3" function="internal">
        <lane id=":2078950650_3_0" index="0" disallow="tram rail_urban rail rail_electric ship" speed="3.65" length="2.34" shape="1581.51,670.75 1580.83,669.48 1580.86,668.58"/>
    </edge>
    <edge id=":2078950650_16" function="internal">
        <lane id=":2078950650_16_0" index="0" speed="6.99" length="8.27" shape="1579.88,669.54 1579.29,669.10 1578.12,667.10 1577.99,664.75 1578.90,662.04"/>
    </edge>
    <edge id=":2078950650_17" function="internal">
        <lane id=":2078950650_17_0" index="0" speed="3.65" length="2.34" shape="1580.86,668.58 1581.59,668.07 1583.03,667.94"/>
    </edge>
    <edge id=":2078950650_4" function="internal">
        <lane id=":2078950650_4_0" index="0" disallow="tram rail_urban rail rail_electric ship" speed="5.20" length="5.26" shape="1581.77,663.46 1581.29,664.86 1581.34,666.08 1581.92,667.10 1583.03,667.94"/>
    </edge>
    <edge id=":2078950650_5" function="internal">
        <lane id=":2078950650_5_0" index="0" allow="delivery bicycle pedestrian" speed="5.56" length="9.62" shape="1581.77,663.46 1577.30,671.99"/>
    </edge>
    <edge id=":2078950650_6" function="internal">
        <lane id=":2078950650_6_0" index="0" disallow="tram rail_urban rail rail_electric ship" speed="6.82" length="10.45" shape="1581.77,663.46 1580.13,665.84 1578.14,667.07 1575.81,667.16 1573.12,666.10"/>
    </edge>
    <edge id=":2078950650_7" function="internal">
        <lane id=":2078950650_7_0" index="0" allow="delivery bicycle pedestrian" speed="3.65" length="4.67" shape="1581.77,663.46 1580.52,664.18 1579.62,664.18 1579.08,663.47 1578.90,662.04"/>
    </edge>
    <edge id=":2078950650_8" function="internal">
        <lane id=":2078950650_8_0" index="0" allow="delivery bicycle pedestrian" speed="4.98" length="5.07" shape="1574.71,663.32 1576.01,663.83 1577.14,663.79 1578.11,663.19 1578.90,662.04"/>
    </edge>
    <edge id=":2078950650_9" function="internal">
        <lane id=":2078950650_9_0" index="0" disallow="tram rail_urban rail rail_electric ship" speed="22.22" length="9.52" shape="1574.71,663.32 1583.03,667.94"/>
    </edge>
    <edge id=":2078950650_10" function="internal">
        <lane id=":2078950650_10_0" index="0" allow="delivery bicycle pedestrian" speed="6.93" length="2.11" shape="1574.71,663.32 1576.38,664.61"/>
    </edge>
    <edge id=":2078950650_11" function="internal">
        <lane id=":2078950650_11_0" index="0" disallow="tram rail_urban rail rail_electric ship" speed="3.65" length="2.34" shape="1574.71,663.32 1575.35,664.61 1575.30,665.50"/>
    </edge>
    <edge id=":2078950650_18" function="internal">
        <lane id=":2078950650_18_0" index="0" speed="6.93" length="8.18" shape="1576.38,664.61 1576.97,665.06 1578.16,667.09 1578.27,669.40 1577.30,671.99"/>
    </edge>
    <edge id=":2078950650_19" function="internal">
        <lane id=":2078950650_19_0" index="0" speed="3.65" length="2.34" shape="1575.30,665.50 1574.56,666.00 1573.12,666.10"/>
    </edge>
    <edge id=":2078950650_12" function="internal">
        <lane id=":2078950650_12_0" index="0" disallow="tram rail_urban rail rail_electric ship" speed="5.13" length="5.17" shape="1574.50,670.44 1574.97,669.15 1574.90,668.00 1574.28,666.98 1573.12,666.10"/>
    </edge>
    <edge id=":2078950650_13" function="internal">
        <lane id=":2078950650_13_0" index="0" allow="delivery bicycle pedestrian" speed="5.56" length="9.48" shape="1574.50,670.44 1578.90,662.04"/>
    </edge>
    <edge id=":2078950650_14" function="internal">
        <lane id=":2078950650_14_0" index="0" disallow="tram rail_urban rail rail_electric ship" speed="6.87" length="10.11" shape="1574.50,670.44 1576.17,668.23 1578.14,667.08 1580.43,666.98 1583.03,667.94"/>
    </edge>
    <edge id=":2078950650_15" function="internal">
        <lane id=":2078950650_15_0" index="0" allow="delivery bicycle pedestrian" speed="3.65" length="4.67" shape="1574.50,670.44 1575.78,669.77 1576.68,669.81 1577.18,670.55 1577.30,671.99"/>
    </edge>
    <edge id=":2078950680_0" function="internal">
        <lane id=":2078950680_0_0" index="0" disallow="tram rail_urban rail rail_electric ship" speed="22.22" length="8.07" shape="1720.84,751.84 1719.30,750.02 1718.11,748.89 1716.77,747.93 1714.76,746.63"/>
    </edge>
    <edge id=":2078950680_1" function="internal">
        <lane id=":2078950680_1_0" index="0" allow="delivery bicycle pedestrian" speed="7.87" length="4.40" shape="1720.84,751.84 1719.73,749.91 1719.34,747.77"/>
    </edge>
    <edge id=":2078950680_2" function="internal">
        <lane id=":2078950680_2_0" index="0" disallow="tram rail_urban rail rail_electric ship" speed="3.65" length="2.34" shape="1720.84,751.84 1720.71,750.40 1721.08,749.59"/>
    </edge>
    <edge id=":2078950680_9" function="internal">
        <lane id=":2078950680_9_0" index="0" speed="7.87" length="5.14" shape="1719.34,747.77 1719.68,745.42 1720.76,742.87"/>
    </edge>
    <edge id=":2078950680_10" function="internal">
        <lane id=":2078950680_10_0" index="0" speed="3.65" length="2.34" shape="1721.08,749.59 1721.95,749.40 1723.33,749.83"/>
    </edge>
    <edge id=":2078950680_3" function="internal">
        <lane id=":2078950680_3_0" index="0" disallow="tram rail_urban rail rail_electric ship" speed="6.26" length="5.77" shape="1723.57,744.39 1722.86,746.02 1722.58,747.47 1722.74,748.74 1723.33,749.83"/>
    </edge>
    <edge id=":2078950680_4" function="internal">
        <lane id=":2078950680_4_0" index="0" disallow="tram rail_urban rail rail_electric ship" speed="6.80" length="10.58" shape="1723.57,744.39 1721.82,746.75 1719.77,747.91 1717.42,747.87 1714.76,746.63"/>
    </edge>
    <edge id=":2078950680_5" function="internal">
        <lane id=":2078950680_5_0" index="0" allow="delivery bicycle pedestrian" speed="3.65" length="4.67" shape="1723.57,744.39 1722.30,745.07 1721.40,745.04 1720.89,744.31 1720.76,742.87"/>
    </edge>
    <edge id=":2078950680_6" function="internal">
        <lane id=":2078950680_6_0" index="0" allow="delivery bicycle pedestrian" speed="4.96" length="5.10" shape="1716.50,743.95 1717.79,744.55 1718.92,744.57 1719.91,744.01 1720.76,742.87"/>
    </edge>
    <edge id=":2078950680_7" function="internal">
        <lane id=":2078950680_7_0" index="0" disallow="tram rail_urban rail rail_electric ship" speed="22.22" length="9.07" shape="1716.50,743.95 1718.76,745.41 1720.27,746.50 1721.60,747.78 1723.33,749.83"/>
    </edge>
    <edge id=":2078950680_8" function="internal">
        <lane id=":2078950680_8_0" index="0" disallow="tram rail_urban rail rail_electric ship" speed="3.65" length="2.34" shape="1716.50,743.95 1717.07,745.28 1716.97,746.17"/>
    </edge>
    <edge id=":2078950680_11" function="internal">
        <lane id=":2078950680_11_0" index="0" speed="3.65" length="2.34" shape="1716.97,746.17 1716.20,746.62 1714.76,746.63"/>
    </edge>
    <edge id=":2078950784_0" function="internal">
        <lane id=":2078950784_0_0" index="0" allow="delivery bicycle pedestrian" speed="4.97" length="5.08" shape="1631.20,697.69 1629.89,697.17 1628.76,697.21 1627.79,697.81 1627.00,698.97"/>
    </edge>
    <edge id=":2078950784_1" function="internal">
        <lane id=":2078950784_1_0" index="0" disallow="tram rail_urban rail rail_electric ship" speed="22.22" length="9.50" shape="1631.20,697.69 1622.89,693.07"/>
    </edge>
    <edge id=":2078950784_2" function="internal">
        <lane id=":2078950784_2_0" index="0" allow="delivery bicycle pedestrian" speed="6.92" length="2.12" shape="1631.20,697.69 1629.52,696.39"/>
    </edge>
    <edge id=":2078950784_3" function="internal">
        <lane id=":2078950784_3_0" index="0" disallow="tram rail_urban rail rail_electric ship" speed="3.65" length="2.34" shape="1631.20,697.69 1630.55,696.40 1630.60,695.51"/>
    </edge>
    <edge id=":2078950784_16" function="internal">
        <lane id=":2078950784_16_0" index="0" speed="6.92" length="8.20" shape="1629.52,696.39 1628.92,695.93 1627.74,693.90 1627.65,691.59 1628.65,689.00"/>
    </edge>
    <edge id=":2078950784_17" function="internal">
        <lane id=":2078950784_17_0" index="0" speed="3.65" length="2.34" shape="1630.60,695.51 1631.35,695.01 1632.79,694.91"/>
    </edge>
    <edge id=":2078950784_4" function="internal">
        <lane id=":2078950784_4_0" index="0" disallow="tram rail_urban rail rail_electric ship" speed="5.12" length="5.18" shape="1631.43,690.57 1630.94,691.85 1631.01,693.00 1631.62,694.02 1632.79,694.91"/>
    </edge>
    <edge id=":2078950784_5" function="internal">
        <lane id=":2078950784_5_0" index="0" allow="delivery bicycle pedestrian" speed="5.56" length="9.50" shape="1631.43,690.57 1627.00,698.97"/>
    </edge>
    <edge id=":2078950784_6" function="internal">
        <lane id=":2078950784_6_0" index="0" disallow="tram rail_urban rail rail_electric ship" speed="6.89" length="10.10" shape="1631.43,690.57 1629.74,692.77 1627.76,693.92 1625.47,694.02 1622.89,693.07"/>
    </edge>
    <edge id=":2078950784_7" function="internal">
        <lane id=":2078950784_7_0" index="0" allow="delivery bicycle pedestrian" speed="3.65" length="4.67" shape="1631.43,690.57 1630.14,691.22 1629.25,691.18 1628.75,690.43 1628.65,689.00"/>
    </edge>
    <edge id=":2078950784_8" function="internal">
        <lane id=":2078950784_8_0" index="0" allow="delivery bicycle pedestrian" speed="5.08" length="5.02" shape="1624.41,690.25 1625.69,690.72 1626.82,690.67 1627.81,690.09 1628.65,689.00"/>
    </edge>
    <edge id=":2078950784_9" function="internal">
        <lane id=":2078950784_9_0" index="0" disallow="tram rail_urban rail rail_electric ship" speed="22.22" length="9.59" shape="1624.41,690.25 1632.79,694.91"/>
    </edge>
    <edge id=":2078950784_10" function="internal">
        <lane id=":2078950784_10_0" index="0" allow="delivery bicycle pedestrian" speed="7.00" length="2.03" shape="1624.41,690.25 1626.04,691.47"/>
    </edge>
    <edge id=":2078950784_11" function="internal">
        <lane id=":2078950784_11_0" index="0" disallow="tram rail_urban rail rail_electric ship" speed="3.65" length="2.34" shape="1624.41,690.25 1625.09,691.53 1625.06,692.42"/>
    </edge>
    <edge id=":2078950784_18" function="internal">
        <lane id=":2078950784_18_0" index="0" speed="7.00" length="8.25" shape="1626.04,691.47 1626.61,691.90 1627.78,693.90 1627.91,696.26 1627.00,698.97"/>
    </edge>
    <edge id=":2078950784_19" function="internal">
        <lane id=":2078950784_19_0" index="0" speed="3.65" length="2.34" shape="1625.06,692.42 1624.33,692.93 1622.89,693.07"/>
    </edge>
    <edge id=":2078950784_12" function="internal">
        <lane id=":2078950784_12_0" index="0" disallow="tram rail_urban rail rail_electric ship" speed="5.22" length="5.27" shape="1624.13,697.56 1624.61,696.15 1624.56,694.93 1623.99,693.90 1622.89,693.07"/>
    </edge>
    <edge id=":2078950784_13" function="internal">
        <lane id=":2078950784_13_0" index="0" allow="delivery bicycle pedestrian" speed="5.56" length="9.69" shape="1624.13,697.56 1628.65,689.00"/>
    </edge>
    <edge id=":2078950784_14" function="internal">
        <lane id=":2078950784_14_0" index="0" disallow="tram rail_urban rail rail_electric ship" speed="6.81" length="10.48" shape="1624.13,697.56 1625.76,695.17 1627.75,693.93 1630.09,693.85 1632.79,694.91"/>
    </edge>
    <edge id=":2078950784_15" function="internal">
        <lane id=":2078950784_15_0" index="0" allow="delivery bicycle pedestrian" speed="3.65" length="4.67" shape="1624.13,697.56 1625.38,696.84 1626.27,696.83 1626.81,697.54 1627.00,698.97"/>
    </edge>
    <edge id=":2078950831_0" function="internal">
        <lane id=":2078950831_0_0" index="0" allow="delivery bicycle pedestrian" speed="3.65" length="4.67" shape="1572.31,615.88 1571.64,614.61 1571.68,613.71 1572.41,613.20 1573.85,613.08"/>
    </edge>
    <edge id=":2078950971_0" function="internal">
        <lane id=":2078950971_0_0" index="0" allow="delivery bicycle pedestrian" speed="4.98" length="5.07" shape="1611.78,737.08 1610.49,736.54 1609.36,736.56 1608.38,737.13 1607.56,738.27"/>
    </edge>
    <edge id=":2078950971_1" function="internal">
        <lane id=":2078950971_1_0" index="0" allow="delivery bicycle pedestrian" speed="5.56" length="9.70" shape="1611.78,737.08 1603.38,732.22"/>
    </edge>
    <edge id=":2078950971_2" function="internal">
        <lane id=":2078950971_2_0" index="0" allow="delivery bicycle pedestrian" speed="5.56" length="10.47" shape="1611.78,737.08 1609.57,735.30 1608.40,733.21 1608.25,730.82 1609.13,728.12"/>
    </edge>
    <edge id=":2078950971_3" function="internal">
        <lane id=":2078950971_3_0" index="0" allow="delivery bicycle pedestrian" speed="3.65" length="4.67" shape="1611.78,737.08 1611.17,735.78 1611.23,734.89 1611.99,734.41 1613.43,734.34"/>
    </edge>
    <edge id=":2078950971_4" function="internal">
        <lane id=":2078950971_4_0" index="0" allow="delivery bicycle pedestrian" speed="5.44" length="5.62" shape="1612.00,729.53 1611.53,730.98 1611.61,732.26 1612.24,733.38 1613.43,734.34"/>
    </edge>
    <edge id=":2078950971_5" function="internal">
        <lane id=":2078950971_5_0" index="0" allow="delivery bicycle pedestrian" speed="5.56" length="9.80" shape="1612.00,729.53 1607.56,738.27"/>
    </edge>
    <edge id=":2078950971_6" function="internal">
        <lane id=":2078950971_6_0" index="0" allow="delivery bicycle pedestrian" speed="5.56" length="10.42" shape="1612.00,729.53 1610.38,731.91 1608.40,733.15 1606.07,733.25 1603.38,732.22"/>
    </edge>
    <edge id=":2078950971_7" function="internal">
        <lane id=":2078950971_7_0" index="0" allow="delivery bicycle pedestrian" speed="3.65" length="4.67" shape="1612.00,729.53 1610.76,730.25 1609.86,730.26 1609.32,729.55 1609.13,728.12"/>
    </edge>
    <edge id=":2078950971_8" function="internal">
        <lane id=":2078950971_8_0" index="0" allow="delivery bicycle pedestrian" speed="4.99" length="5.06" shape="1604.94,729.43 1606.25,729.93 1607.38,729.88 1608.34,729.27 1609.13,728.12"/>
    </edge>
    <edge id=":2078950971_9" function="internal">
        <lane id=":2078950971_9_0" index="0" allow="delivery bicycle pedestrian" speed="5.56" length="9.80" shape="1604.94,729.43 1613.43,734.34"/>
    </edge>
    <edge id=":2078950971_10" function="internal">
        <lane id=":2078950971_10_0" index="0" allow="delivery bicycle pedestrian" speed="5.56" length="10.45" shape="1604.94,729.43 1607.22,731.16 1608.41,733.21 1608.52,735.57 1607.56,738.27"/>
    </edge>
    <edge id=":2078950971_11" function="internal">
        <lane id=":2078950971_11_0" index="0" allow="delivery bicycle pedestrian" speed="3.65" length="4.67" shape="1604.94,729.43 1605.60,730.71 1605.56,731.60 1604.82,732.11 1603.38,732.22"/>
    </edge>
    <edge id=":2078950971_12" function="internal">
        <lane id=":2078950971_12_0" index="0" allow="delivery bicycle pedestrian" speed="5.24" length="5.38" shape="1604.73,736.77 1605.22,735.39 1605.17,734.17 1604.55,733.11 1603.38,732.22"/>
    </edge>
    <edge id=":2078950971_13" function="internal">
        <lane id=":2078950971_13_0" index="0" allow="delivery bicycle pedestrian" speed="5.56" length="9.71" shape="1604.73,736.77 1609.13,728.12"/>
    </edge>
    <edge id=":2078950971_14" function="internal">
        <lane id=":2078950971_14_0" index="0" allow="delivery bicycle pedestrian" speed="5.56" length="10.44" shape="1604.73,736.77 1606.42,734.44 1608.44,733.26 1610.77,733.22 1613.43,734.34"/>
    </edge>
    <edge id=":2078950971_15" function="internal">
        <lane id=":2078950971_15_0" index="0" allow="delivery bicycle pedestrian" speed="3.65" length="4.67" shape="1604.73,736.77 1606.00,736.08 1606.89,736.10 1607.41,736.83 1607.56,738.27"/>
    </edge>
    <edge id=":2081753652_0" function="internal">
        <lane id=":2081753652_0_0" index="0" allow="delivery bicycle pedestrian" speed="5.56" length="11.55" shape="1790.50,648.36 1790.46,645.05 1790.52,642.35 1790.00,639.93 1788.18,637.46"/>
    </edge>
    <edge id=":2081753652_1" function="internal">
        <lane id=":2081753652_1_0" index="0" allow="delivery bicycle pedestrian" speed="5.56" length="17.31" shape="1790.50,648.36 1790.60,642.73 1792.15,640.13 1795.14,640.58 1799.57,644.06"/>
    </edge>
    <edge id=":2081753652_2" function="internal">