<?xml version="1.0" encoding="UTF-8"?>

<!-- generated on 12/08/18 02:17:13 by Eclipse SUMO polyconvert Version v1_0_0+0273-790abe1ce9
<configuration xmlns:xsi="http://www.w3.org/2001/XMLSchema-instance" xsi:noNamespaceSchemaLocation="http://sumo.dlr.de/xsd/polyconvertConfiguration.xsd">

    <input>
        <net-file value="map.net.xml"/>
        <osm-files value="map.osm"/>
        <type-file value="typemap.xml"/>
    </input>

    <output>
        <output-file value="map.poly.xml"/>
    </output>

    <processing>
        <poi-layer-offset value="5"/>
    </processing>

</configuration>
-->

<additional xmlns:xsi="http://www.w3.org/2001/XMLSchema-instance" xsi:noNamespaceSchemaLocation="http://sumo.dlr.de/xsd/additional_file.xsd">
    <e1Detector id="tc_detector_0" lane="tc_e1_0" pos="7.78" freq="100.00" file="NUL"/>
    <e1Detector id="tc_detector_1" lane="tc_e1_1" pos="7.78" freq="100.00" file="NUL"/>
    <e1Detector id="tc_detector_2" lane="tc_e1_2" pos="7.78" freq="100.00" file="NUL"/>

    <e1Detector id="ltk_detector_0" lane="ltk_e3_0" pos="19.72" freq="100.00" file="NUL"/>
    <e1Detector id="ltk_detector_1" lane="ltk_e3_1" pos="20.07" freq="100.00" file="NUL"/>

    <e1Detector id="cmt8_detector_0" lane="cmt8_e2_0" pos="15.17" freq="100.00" file="NUL"/>
    <e1Detector id="cmt8_detector_1" lane="cmt8_e2_1" pos="15.01" freq="100.00" file="NUL"/>

    <!-- pass vehicle -->
    <e1Detector id="cmt8_pass_detector_0" lane="cmt8_e5_0" pos="5.14" freq="100.00" file="NUL"/>    
    <e1Detector id="cmt8_pass_detector_1" lane="cmt8_e5_1" pos="5.12" freq="100.00" file="NUL"/>

    <e1Detector id="ltk_pass_detector_0" lane="ltk_e5_0" pos="4.14" freq="100.00" file="NUL"/>    
    <e1Detector id="ltk_pass_detector_1" lane="ltk_e5_1" pos="4.13" freq="100.00" file="NUL"/>

    <e1Detector id="hvt_pass_detector_0" lane="hvt_e2_0" pos="3.11" freq="100.00" file="NUL"/>    
    <e1Detector id="hvt_pass_detector_1" lane="hvt_e2_1" pos="2.96" freq="100.00" file="NUL"/>
    <e1Detector id="hvt_pass_detector_2" lane="hvt_e5_0" pos="3.10" freq="100.00" file="NUL"/>    
    <e1Detector id="hvt_pass_detector_3" lane="hvt_e5_1" pos="2.78" freq="100.00" file="NUL"/>

    <location netOffset="-678938.62,-1193215.12" convBoundary="-0.00,0.00,2599.82,2392.99" origBoundary="106.636682,10.789709,106.660445,10.811335" projParameter="+proj=utm +zone=48 +ellps=WGS84 +datum=WGS84 +units=m +no_defs"/>

    <poly id="138877180" type="building" color="255,230,230" fill="1" layer="-1.00" shape="1974.211828,597.470335 1900.830784,665.754460 1967.075270,736.021769 2040.456341,667.737788 2022.568637,648.758912 1974.211828,597.470335"/>
    <poly id="197982832" type="building" color="255,230,230" fill="1" layer="-1.00" shape="2054.385482,656.331305 2054.156350,646.131320 2046.563955,638.513063 2031.221318,654.458194 2042.923791,666.490128 2054.385482,656.331305"/>
    <poly id="197982839" type="amenity" color="237,199,199" fill="1" layer="-1.00" shape="1790.470448,694.249556 1747.996675,683.533656 1751.614161,665.777327 1771.872409,667.059338 1779.763607,667.964789 1780.998027,662.153096 1793.891561,664.269174 1790.470448,694.249556"/>
    <poly id="198047671" type="amenity" color="237,199,199" fill="1" layer="-1.00" shape="1752.333998,127.726365 1780.410755,117.137300 1776.971143,101.964425 1799.162238,87.660086 1844.412496,74.498031 1853.126543,89.113163 1877.214721,84.000194 1938.044412,257.884559 1940.945283,265.477400 1915.652346,276.999481 1923.595130,294.674521 1859.656068,325.765692 1851.902826,327.648486 1844.175589,326.743916 1836.929849,323.762382 1830.460045,318.860338 1810.537010,285.866728 1789.297286,247.589673 1765.127788,196.930023 1753.510606,169.058584 1750.247828,159.616538 1748.257360,149.495551 1752.333998,127.726365"/>
    <poly id="214531056" type="leisure" color="207,245,201" fill="1" layer="-2.00" shape="1732.319834,498.245766 1797.953909,432.695849 1825.585004,460.001258 1763.407450,525.437063 1732.319834,498.245766"/>
    <poly id="214531056#1" type="sport" color="79,230,125" fill="1" layer="-2.00" shape="1732.319834,498.245766 1797.953909,432.695849 1825.585004,460.001258 1763.407450,525.437063 1732.319834,498.245766"/>
    <poly id="312264767" type="building" color="255,230,230" fill="1" layer="-1.00" shape="1971.147307,440.225021 1983.885038,454.983659 1979.413907,458.676146 1985.435264,465.600063 2023.240507,455.904545 2027.638915,465.651443 1980.565898,476.192797 1971.897240,465.349835 1967.075197,469.217410 1954.322641,455.177700 1971.147307,440.225021"/>
    <poly id="312264768" type="building" color="255,230,230" fill="1" layer="-1.00" shape="2063.652900,415.118115 2077.522112,453.189592 2087.460809,449.626267 2073.591606,411.554785 2063.652900,415.118115"/>
    <poly id="312264769" type="building" color="255,230,230" fill="1" layer="-1.00" shape="2071.697360,448.335229 2055.332649,404.564616 2028.287290,414.550625 2044.652028,458.321221 2071.697360,448.335229"/>
    <poly id="373721573" type="amenity" color="237,199,199" fill="1" layer="-1.00" shape="2039.263942,566.772619 2077.614440,527.048031 2073.837121,519.749086 2076.832680,507.818833 2059.381522,480.911185 2028.828602,488.322983 2041.374826,502.085074 2006.883687,533.954766 2039.263942,566.772619"/>
    <poly id="373721574" type="amenity" color="237,199,199" fill="1" layer="-1.00" shape="1961.950838,488.536321 2091.770933,459.516499 2072.765786,392.380658 2057.087911,363.148635 2014.145010,384.486259 2005.322457,387.933970 1997.696755,388.478972 1988.313497,388.428206 1981.283212,386.056188 1975.446661,381.356643 1934.761179,308.860488 1883.551636,340.064706 1875.784135,366.835868 1877.497618,375.583745 1879.804763,383.759631 1961.950838,488.536321"/>
    <poly id="377308562" type="building" color="255,230,230" fill="1" layer="-1.00" shape="1816.673109,562.935950 1823.018717,556.410764 1829.024428,562.184167 1835.501990,555.526959 1837.917314,557.851877 1856.217193,539.057718 1853.508089,536.454671 1861.129419,528.620066 1855.363045,523.080244 1858.706293,519.647122 1825.968524,488.188115 1823.043182,491.192100 1816.787180,485.185056 1809.176909,492.997607 1806.979165,490.884037 1787.590519,510.800614 1789.897085,513.014325 1783.001622,520.100683 1789.464333,526.307946 1784.196567,531.710687 1816.673109,562.935950"/>
    <poly id="377308562#1" type="leisure" color="207,245,201" fill="1" layer="-2.00" shape="1816.673109,562.935950 1823.018717,556.410764 1829.024428,562.184167 1835.501990,555.526959 1837.917314,557.851877 1856.217193,539.057718 1853.508089,536.454671 1861.129419,528.620066 1855.363045,523.080244 1858.706293,519.647122 1825.968524,488.188115 1823.043182,491.192100 1816.787180,485.185056 1809.176909,492.997607 1806.979165,490.884037 1787.590519,510.800614 1789.897085,513.014325 1783.001622,520.100683 1789.464333,526.307946 1784.196567,531.710687 1816.673109,562.935950"/>
    <poly id="377308625" type="commercial" color="209,209,204" fill="1" layer="-3.00" shape="2058.758920,644.419573 1807.820176,412.174726 1723.069227,504.014150 1968.692100,740.388765 2058.758920,644.419573"/>
    <poly id="460352585" type="tourism" color="207,245,201" fill="1" layer="-2.00" shape="1922.605247,617.223594 1861.271466,556.960486 1881.601008,536.982668 1908.875801,539.143370 1916.604161,543.875261 1958.173780,582.262437 1922.605247,617.223594"/>
    <poi id="2513598207" type="amenity" color="237,199,199" layer="4.00" x="1896.49" y="336.05"/>
    <poi id="2513598208" type="amenity" color="237,199,199" layer="4.00" x="1604.66" y="453.59"/>
    <poi id="4735438822" type="shop" color="237,199,255" layer="4.00" x="1708.03" y="296.10"/>
    <poi id="5010985222" type="amenity" color="237,199,199" layer="4.00" x="1861.27" y="324.35"/>
    <poi id="5103043521" type="amenity" color="237,199,199" layer="4.00" x="1677.09" y="665.89"/>
    <poi id="5303527423" type="shop" color="237,199,255" layer="4.00" x="2007.15" y="483.46"/>
    <poi id="5608880629" type="shop" color="237,199,255" layer="4.00" x="1900.25" y="316.94"/>
    <poi id="5608881023" type="shop" color="237,199,255" layer="4.00" x="2055.99" y="233.93"/>
    <poi id="5609998392" type="shop" color="237,199,255" layer="4.00" x="1546.39" y="643.17"/>
    <poi id="5802615453" type="shop" color="237,199,255" layer="4.00" x="1663.16" y="704.24"/>
    <poi id="6049157971" type="unknown" color="51,128,255" layer="4.00" x="2086.43" y="84.36"/>
    <poi id="729604392" type="amenity" color="237,199,199" layer="4.00" x="1686.01" y="449.89"/>
    <poi id="729604947" type="amenity" color="237,199,199" layer="4.00" x="1653.70" y="439.95"/>
</additional>
