<routes>
	<route edges="tc_e1 tc_e2 tc_e3 cmt8_e4 cmt8_e5 cmt8_e6" id="routeWE" />
	<route edges="tc_e1 tc_e2 tc_e3 hvt_e4 hvt_e5" id="routeWN" />
	<route edges="tc_e1 tc_e2 sc_tcltk ltk_e5 ltk_e6" id="routeWSShortcut" />
	<route edges="tc_e1 tc_e2 sc_tchvt hvt_e5" id="routeWNShortcut" />
	<route edges="tc_e1 tc_e2 tc_e3 ltk_e4 ltk_e5 ltk_e6" id="routeWS" />

	<route edges="ltk_e3 ltk_e2 ltk_e1 hvt_e1 hvt_e2" id="routeNS" />
	<route edges="ltk_e3 ltk_e2 sc_ltkcmt8 cmt8_e5 cmt8_e6" id="routeNEShortcut" />
	<route edges="ltk_e3 ltk_e2 ltk_e1 cmt8_e4 cmt8_e5 cmt8_e6" id="routeNE" />	

	<route edges="cmt8_e3 cmt8_e2 sc_cmt8hvt hvt_e2" id="routeENShortcut" />
	<route edges="cmt8_e3 cmt8_e2 cmt8_e1 hvt_e1 hvt_e2" id="routeEN" />
	<route edges="cmt8_e3 cmt8_e2 cmt8_e1 ltk_e4 ltk_e5 ltk_e6" id="routeES" />
	
    <vType accel="2.6" carFollowModel="KraussPS" color="yellow" decel="2.6" guiShape="motorcycle" id="motobike" impatience="1.0" laneChangeModel="SL2015" lcPushy="1.0" lcSublane="-2.0" length="1.3" maxSpeed="14.5" minGap="0.25" sigma="0.8" speedDev="0.1" tau="1.2" vClass="motorcycle" width="0.5" departLane="best"/>
		
	<vType accel="3.2" carFollowModel="KraussPS" color="green" decel="3.2" guiShape="motorcycle" id="superbike" impatience="1.0" laneChangeModel="SL2015" lcPushy="1.0" lcSublane="-2.0" length="1.5" maxSpeed="16.5" minGap="0.3" sigma="0.8" speedDev="0.1" tau="1.2" vClass="motorcycle" width="0.5" departLane="best"/>
		
    <vType accel="2.2" carFollowModel="KraussPS" color="blue" decel="2.2" guiShape="passenger/sedan" id="car" impatience="1.0" laneChangeModel="SL2015" lcPushy="1.0" lcSublane="-2.0" length="2.65" maxSpeed="14" minGap="0.7" sigma="0.8" speedDev="0.1" tau="1.2" vClass="passenger" width="1.25" departLane="best"/>
		
	<vType accel="1.8" carFollowModel="KraussPS" color="red" decel="1.8" guiShape="passenger/sedan" id="supercar" impatience="1.0" laneChangeModel="SL2015" lcPushy="1.0" lcSublane="-2.0" length="2.65" maxSpeed="13.5" minGap="0.7" sigma="0.8" speedDev="0.1" tau="1.2" vClass="passenger" width="1.5" departLane="best"/>
	
	
	<flow departLane="random" id="motor_WE" probability="0.176" route="routeWE" type="motobike" /> 
	<flow departLane="random" id="car_WE" latAlignment="left" probability="0.0715" route="routeWE" type="car" /> 
	<flow departLane="random" id="motor_WS" latAlignment="right" probability="0.0216" route="routeWS" type="superbike" /> 
	<flow departLane="random" id="car_WS" latAlignment="right" probability="0.02145" route="routeWS" type="car" /> 
	<flow departLane="random" id="motor_WS_Shortcut" latAlignment="right" probability="0.0616" route="routeWSShortcut" type="motobike" />
	<flow departLane="random" id="scar_WN_Shortcut" latAlignment="right" probability="0.0616" route="routeWSShortcut" type="supercar" />
	<flow departLane="random" id="car_WN_Shortcut" latAlignment="right" probability="0.0616" route="routeWSShortcut" type="car" />
	<flow departLane="random" id="motor_WN" latAlignment="left" probability="0.01584" route="routeWN" type="superbike" /> 
	<flow departLane="random" id="car_WN" latAlignment="left" probability="0.0572" route="routeWN" type="supercar" /> 	

	<flow departLane="random" id="motor_NS" probability="0.385" route="routeNS" type="motobike" /> 
	<flow departLane="random" id="car_NS" probability="0.242" route="routeNS" type="car" /> 
	<flow departLane="random" id="motor_NE_Shortcut" latAlignment="right" probability="0.077" route="routeNEShortcut" type="superbike" />
	<flow departLane="random" id="motor_NE" latAlignment="right" probability="0.0231" route="routeNE" type="motobike" /> 
	<flow departLane="random" id="car_NE" latAlignment="right" probability="0.01452" route="routeNE" type="supercar" />

	<flow departLane="random" id="motor_EN" latAlignment="right" probability="0.16688" route="routeEN" type="superbike" /> 
	<flow departLane="random" id="car_EN" latAlignment="right" probability="0.02904" route="routeEN" type="supercar" /> 
	<flow departLane="random" id="motor_EN_Shortcut" latAlignment="right" probability="0.06688" route="routeENShortcut" type="motobike" />
	<flow departLane="random" id="motor_ES" latAlignment="left" probability="0.1209" route="routeES" type="superbike" /> 
	<flow departLane="random" id="car_ES" latAlignment="left" probability="0.0616" route="routeES" type="car" /> 
	
</routes>